Quercetin


 27 29  0  0  0  0  0  0  0  0999 V2000
   60.4942    4.9309    0.6934 C   0  0  0  0  0  0  0  0  0  0  0  0
   59.3150    4.3138    0.4748 C   0  0  0  0  0  0  0  0  0  0  0  0
   58.3609    4.2159    1.6123 C   0  0  0  0  0  0  0  0  0  0  0  0
   57.2544    3.6902    1.5153 O   0  0  0  0  0  0  0  0  0  0  0  0
   58.7874    4.7840    2.8963 C   0  0  0  0  0  0  0  0  0  0  0  0
   57.9579    4.7500    4.0239 C   0  0  0  0  0  0  0  0  0  0  0  0
   58.3883    5.2937    5.2317 C   0  0  0  0  0  0  0  0  0  0  0  0
   59.6539    5.8683    5.3025 C   0  0  0  0  0  0  0  0  0  0  0  0
   60.4876    5.9088    4.1878 C   0  0  0  0  0  0  0  0  0  0  0  0
   60.0487    5.3664    2.9796 C   0  0  0  0  0  0  0  0  0  0  0  0
   60.9053    5.4449    1.9121 O   0  0  0  0  0  0  0  0  0  0  0  0
   60.1197    6.4127    6.4626 O   0  0  0  0  0  0  0  0  0  0  0  0
   56.7047    4.1979    4.0118 O   0  0  0  0  0  0  0  0  0  0  0  0
   58.9253    3.7611   -0.7327 O   0  0  0  0  0  0  0  0  0  0  0  0
   59.4390    6.3151    7.1503 H   0  0  0  0  0  0  0  0  0  0  0  0
   56.5329    3.8498    3.1059 H   0  0  0  0  0  0  0  0  0  0  0  0
   59.6893    3.7333   -1.3326 H   0  0  0  0  0  0  0  0  0  0  0  0
   62.6177    4.2893   -0.4597 C   0  0  0  0  0  0  0  0  0  0  0  0
   63.5857    4.4901   -1.4490 C   0  0  0  0  0  0  0  0  0  0  0  0
   63.4159    5.5259   -2.3578 C   0  0  0  0  0  0  0  0  0  0  0  0
   62.2913    6.3452   -2.2892 C   0  0  0  0  0  0  0  0  0  0  0  0
   61.3246    6.1542   -1.3106 C   0  0  0  0  0  0  0  0  0  0  0  0
   61.4889    5.1261   -0.3748 C   0  0  0  0  0  0  0  0  0  0  0  0
   62.1331    7.3594   -3.1899 O   0  0  0  0  0  0  0  0  0  0  0  0
   64.3304    5.7831   -3.3403 O   0  0  0  0  0  0  0  0  0  0  0  0
   62.9158    7.2979   -3.7736 H   0  0  0  0  0  0  0  0  0  0  0  0
   65.0563    5.1403   -3.2602 H   0  0  0  0  0  0  0  0  0  0  0  0
 18 19  2  0  0  0
 19 20  1  0  0  0
 20 21  2  0  0  0
 21 22  1  0  0  0
 22 23  2  0  0  0
 18 23  1  0  0  0
 23  1  1  0  0  0
  1  2  2  0  0  0
  2  3  1  0  0  0
  3  4  2  0  0  0
  3  5  1  0  0  0
  5  6  2  0  0  0
  6  7  1  0  0  0
  7  8  2  0  0  0
  8  9  1  0  0  0
  9 10  2  0  0  0
  5 10  1  0  0  0
 10 11  1  0  0  0
  1 11  1  0  0  0
  8 12  1  0  0  0
  6 13  1  0  0  0
  2 14  1  0  0  0
 21 24  1  0  0  0
 20 25  1  0  0  0
 12 15  1  0  0  0
 13 16  1  0  0  0
 14 17  1  0  0  0
 24 26  1  0  0  0
 25 27  1  0  0  0
M  END
> <minimizedAffinity>
-7.55828

$$$$
Quercetin


 27 29  0  0  0  0  0  0  0  0999 V2000
   60.4175    4.6829    0.8608 C   0  0  0  0  0  0  0  0  0  0  0  0
   59.1914    4.1508    0.6811 C   0  0  0  0  0  0  0  0  0  0  0  0
   58.2471    4.1782    1.8306 C   0  0  0  0  0  0  0  0  0  0  0  0
   57.1019    3.7369    1.7676 O   0  0  0  0  0  0  0  0  0  0  0  0
   58.7327    4.7675    3.0837 C   0  0  0  0  0  0  0  0  0  0  0  0
   57.9174    4.8483    4.2193 C   0  0  0  0  0  0  0  0  0  0  0  0
   58.4040    5.4095    5.3973 C   0  0  0  0  0  0  0  0  0  0  0  0
   59.7113    5.8860    5.4305 C   0  0  0  0  0  0  0  0  0  0  0  0
   60.5313    5.8119    4.3074 C   0  0  0  0  0  0  0  0  0  0  0  0
   60.0364    5.2525    3.1291 C   0  0  0  0  0  0  0  0  0  0  0  0
   60.8828    5.2166    2.0512 O   0  0  0  0  0  0  0  0  0  0  0  0
   60.2327    6.4430    6.5605 O   0  0  0  0  0  0  0  0  0  0  0  0
   56.6251    4.3959    4.2436 O   0  0  0  0  0  0  0  0  0  0  0  0
   58.7445    3.5775   -0.4966 O   0  0  0  0  0  0  0  0  0  0  0  0
   59.5552    6.4294    7.2582 H   0  0  0  0  0  0  0  0  0  0  0  0
   56.4153    4.0225    3.3560 H   0  0  0  0  0  0  0  0  0  0  0  0
   59.4964    3.4635   -1.1017 H   0  0  0  0  0  0  0  0  0  0  0  0
   61.3947    5.8227   -1.1384 C   0  0  0  0  0  0  0  0  0  0  0  0
   62.3114    5.8779   -2.1932 C   0  0  0  0  0  0  0  0  0  0  0  0
   63.2493    4.8626   -2.3251 C   0  0  0  0  0  0  0  0  0  0  0  0
   63.2809    3.8108   -1.4122 C   0  0  0  0  0  0  0  0  0  0  0  0
   62.3749    3.7467   -0.3616 C   0  0  0  0  0  0  0  0  0  0  0  0
   61.4108    4.7523   -0.2243 C   0  0  0  0  0  0  0  0  0  0  0  0
   64.2094    2.8189   -1.5499 O   0  0  0  0  0  0  0  0  0  0  0  0
   64.1643    4.8507   -3.3402 O   0  0  0  0  0  0  0  0  0  0  0  0
   64.7309    3.0740   -2.3372 H   0  0  0  0  0  0  0  0  0  0  0  0
   64.0177    5.6364   -3.8951 H   0  0  0  0  0  0  0  0  0  0  0  0
 18 19  2  0  0  0
 19 20  1  0  0  0
 20 21  2  0  0  0
 21 22  1  0  0  0
 22 23  2  0  0  0
 18 23  1  0  0  0
 23  1  1  0  0  0
  1  2  2  0  0  0
  2  3  1  0  0  0
  3  4  2  0  0  0
  3  5  1  0  0  0
  5  6  2  0  0  0
  6  7  1  0  0  0
  7  8  2  0  0  0
  8  9  1  0  0  0
  9 10  2  0  0  0
  5 10  1  0  0  0
 10 11  1  0  0  0
  1 11  1  0  0  0
  8 12  1  0  0  0
  6 13  1  0  0  0
  2 14  1  0  0  0
 21 24  1  0  0  0
 20 25  1  0  0  0
 12 15  1  0  0  0
 13 16  1  0  0  0
 14 17  1  0  0  0
 24 26  1  0  0  0
 25 27  1  0  0  0
M  END
> <minimizedAffinity>
-7.33679

$$$$
Quercetin


 27 29  0  0  0  0  0  0  0  0999 V2000
   59.9697    4.6416    1.5573 C   0  0  0  0  0  0  0  0  0  0  0  0
   58.8264    4.3616    0.8990 C   0  0  0  0  0  0  0  0  0  0  0  0
   58.9230    4.0166   -0.5451 C   0  0  0  0  0  0  0  0  0  0  0  0
   57.9456    3.7282   -1.2319 O   0  0  0  0  0  0  0  0  0  0  0  0
   60.2601    4.0273   -1.1493 C   0  0  0  0  0  0  0  0  0  0  0  0
   60.4569    3.7082   -2.4985 C   0  0  0  0  0  0  0  0  0  0  0  0
   61.7363    3.7292   -3.0480 C   0  0  0  0  0  0  0  0  0  0  0  0
   62.8149    4.0738   -2.2389 C   0  0  0  0  0  0  0  0  0  0  0  0
   62.6321    4.3924   -0.8956 C   0  0  0  0  0  0  0  0  0  0  0  0
   61.3483    4.3652   -0.3501 C   0  0  0  0  0  0  0  0  0  0  0  0
   61.2283    4.6753    0.9800 O   0  0  0  0  0  0  0  0  0  0  0  0
   64.0859    4.1090   -2.7314 O   0  0  0  0  0  0  0  0  0  0  0  0
   59.4334    3.3624   -3.3401 O   0  0  0  0  0  0  0  0  0  0  0  0
   57.5649    4.3726    1.4682 O   0  0  0  0  0  0  0  0  0  0  0  0
   64.0642    3.8663   -3.6729 H   0  0  0  0  0  0  0  0  0  0  0  0
   58.5923    3.3935   -2.8274 H   0  0  0  0  0  0  0  0  0  0  0  0
   57.6161    4.7766    2.3505 H   0  0  0  0  0  0  0  0  0  0  0  0
   60.4598    6.1929    3.4557 C   0  0  0  0  0  0  0  0  0  0  0  0
   60.5189    6.4774    4.8238 C   0  0  0  0  0  0  0  0  0  0  0  0
   60.1013    5.5133    5.7314 C   0  0  0  0  0  0  0  0  0  0  0  0
   59.6210    4.2852    5.2825 C   0  0  0  0  0  0  0  0  0  0  0  0
   59.5585    3.9929    3.9262 C   0  0  0  0  0  0  0  0  0  0  0  0
   59.9927    4.9464    2.9979 C   0  0  0  0  0  0  0  0  0  0  0  0
   59.2102    3.3452    6.1839 O   0  0  0  0  0  0  0  0  0  0  0  0
   60.1450    5.7236    7.0811 O   0  0  0  0  0  0  0  0  0  0  0  0
   59.3365    3.7668    7.0577 H   0  0  0  0  0  0  0  0  0  0  0  0
   60.5046    6.6133    7.2418 H   0  0  0  0  0  0  0  0  0  0  0  0
 18 19  2  0  0  0
 19 20  1  0  0  0
 20 21  2  0  0  0
 21 22  1  0  0  0
 22 23  2  0  0  0
 18 23  1  0  0  0
 23  1  1  0  0  0
  1  2  2  0  0  0
  2  3  1  0  0  0
  3  4  2  0  0  0
  3  5  1  0  0  0
  5  6  2  0  0  0
  6  7  1  0  0  0
  7  8  2  0  0  0
  8  9  1  0  0  0
  9 10  2  0  0  0
  5 10  1  0  0  0
 10 11  1  0  0  0
  1 11  1  0  0  0
  8 12  1  0  0  0
  6 13  1  0  0  0
  2 14  1  0  0  0
 21 24  1  0  0  0
 20 25  1  0  0  0
 12 15  1  0  0  0
 13 16  1  0  0  0
 14 17  1  0  0  0
 24 26  1  0  0  0
 25 27  1  0  0  0
M  END
> <minimizedAffinity>
-6.97464

$$$$
Quercetin


 27 29  0  0  0  0  0  0  0  0999 V2000
   59.0007    4.2562    1.7391 C   0  0  0  0  0  0  0  0  0  0  0  0
   58.0194    3.9515    0.8655 C   0  0  0  0  0  0  0  0  0  0  0  0
   58.3063    4.1133   -0.5855 C   0  0  0  0  0  0  0  0  0  0  0  0
   57.4891    3.8470   -1.4638 O   0  0  0  0  0  0  0  0  0  0  0  0
   59.6354    4.6137   -0.9547 C   0  0  0  0  0  0  0  0  0  0  0  0
   60.0052    4.7916   -2.2935 C   0  0  0  0  0  0  0  0  0  0  0  0
   61.2721    5.2711   -2.6167 C   0  0  0  0  0  0  0  0  0  0  0  0
   62.1634    5.5730   -1.5913 C   0  0  0  0  0  0  0  0  0  0  0  0
   61.8075    5.3996   -0.2562 C   0  0  0  0  0  0  0  0  0  0  0  0
   60.5384    4.9146    0.0607 C   0  0  0  0  0  0  0  0  0  0  0  0
   60.2462    4.7516    1.3903 O   0  0  0  0  0  0  0  0  0  0  0  0
   63.4143    6.0457   -1.8576 O   0  0  0  0  0  0  0  0  0  0  0  0
   59.1697    4.5113   -3.3418 O   0  0  0  0  0  0  0  0  0  0  0  0
   56.7601    3.4992    1.2191 O   0  0  0  0  0  0  0  0  0  0  0  0
   63.5244    6.1159   -2.8214 H   0  0  0  0  0  0  0  0  0  0  0  0
   58.3143    4.1893   -2.9731 H   0  0  0  0  0  0  0  0  0  0  0  0
   56.6410    3.6030    2.1779 H   0  0  0  0  0  0  0  0  0  0  0  0
   58.2307    5.0915    3.9662 C   0  0  0  0  0  0  0  0  0  0  0  0
   58.1061    4.9532    5.3523 C   0  0  0  0  0  0  0  0  0  0  0  0
   58.5855    3.8008    5.9606 C   0  0  0  0  0  0  0  0  0  0  0  0
   59.1722    2.7941    5.1972 C   0  0  0  0  0  0  0  0  0  0  0  0
   59.3009    2.9219    3.8203 C   0  0  0  0  0  0  0  0  0  0  0  0
   58.8396    4.0851    3.1929 C   0  0  0  0  0  0  0  0  0  0  0  0
   59.6379    1.6636    5.8055 O   0  0  0  0  0  0  0  0  0  0  0  0
   58.5057    3.6093    7.3114 O   0  0  0  0  0  0  0  0  0  0  0  0
   59.4371    1.7911    6.7544 H   0  0  0  0  0  0  0  0  0  0  0  0
   58.0823    4.3904    7.7079 H   0  0  0  0  0  0  0  0  0  0  0  0
 18 19  2  0  0  0
 19 20  1  0  0  0
 20 21  2  0  0  0
 21 22  1  0  0  0
 22 23  2  0  0  0
 18 23  1  0  0  0
 23  1  1  0  0  0
  1  2  2  0  0  0
  2  3  1  0  0  0
  3  4  2  0  0  0
  3  5  1  0  0  0
  5  6  2  0  0  0
  6  7  1  0  0  0
  7  8  2  0  0  0
  8  9  1  0  0  0
  9 10  2  0  0  0
  5 10  1  0  0  0
 10 11  1  0  0  0
  1 11  1  0  0  0
  8 12  1  0  0  0
  6 13  1  0  0  0
  2 14  1  0  0  0
 21 24  1  0  0  0
 20 25  1  0  0  0
 12 15  1  0  0  0
 13 16  1  0  0  0
 14 17  1  0  0  0
 24 26  1  0  0  0
 25 27  1  0  0  0
M  END
> <minimizedAffinity>
-6.73305

$$$$
Quercetin


 27 29  0  0  0  0  0  0  0  0999 V2000
   60.2697    4.3932    1.8337 C   0  0  0  0  0  0  0  0  0  0  0  0
   60.1585    3.0806    1.5441 C   0  0  0  0  0  0  0  0  0  0  0  0
   60.5223    2.6391    0.1706 C   0  0  0  0  0  0  0  0  0  0  0  0
   60.4740    1.4656   -0.1908 O   0  0  0  0  0  0  0  0  0  0  0  0
   60.9572    3.6747   -0.7737 C   0  0  0  0  0  0  0  0  0  0  0  0
   61.3292    3.3594   -2.0864 C   0  0  0  0  0  0  0  0  0  0  0  0
   61.7352    4.3619   -2.9636 C   0  0  0  0  0  0  0  0  0  0  0  0
   61.7634    5.6802   -2.5184 C   0  0  0  0  0  0  0  0  0  0  0  0
   61.3965    6.0061   -1.2152 C   0  0  0  0  0  0  0  0  0  0  0  0
   60.9950    4.9966   -0.3400 C   0  0  0  0  0  0  0  0  0  0  0  0
   60.6569    5.3728    0.9343 O   0  0  0  0  0  0  0  0  0  0  0  0
   62.1528    6.6961   -3.3402 O   0  0  0  0  0  0  0  0  0  0  0  0
   61.3205    2.0810   -2.5775 O   0  0  0  0  0  0  0  0  0  0  0  0
   59.7283    2.1101    2.4320 O   0  0  0  0  0  0  0  0  0  0  0  0
   62.3788    6.3262   -4.2108 H   0  0  0  0  0  0  0  0  0  0  0  0
   61.0107    1.4802   -1.8604 H   0  0  0  0  0  0  0  0  0  0  0  0
   59.3601    2.5404    3.2218 H   0  0  0  0  0  0  0  0  0  0  0  0
   60.9707    5.6378    3.8855 C   0  0  0  0  0  0  0  0  0  0  0  0
   60.7194    6.1189    5.1745 C   0  0  0  0  0  0  0  0  0  0  0  0
   59.4743    5.8953    5.7466 C   0  0  0  0  0  0  0  0  0  0  0  0
   58.4880    5.2103    5.0405 C   0  0  0  0  0  0  0  0  0  0  0  0
   58.7276    4.7284    3.7602 C   0  0  0  0  0  0  0  0  0  0  0  0
   59.9835    4.9290    3.1752 C   0  0  0  0  0  0  0  0  0  0  0  0
   57.2660    4.9983    5.6118 O   0  0  0  0  0  0  0  0  0  0  0  0
   59.1691    6.3281    7.0065 O   0  0  0  0  0  0  0  0  0  0  0  0
   57.3256    5.4227    6.4912 H   0  0  0  0  0  0  0  0  0  0  0  0
   59.9490    6.7793    7.3737 H   0  0  0  0  0  0  0  0  0  0  0  0
 18 19  2  0  0  0
 19 20  1  0  0  0
 20 21  2  0  0  0
 21 22  1  0  0  0
 22 23  2  0  0  0
 18 23  1  0  0  0
 23  1  1  0  0  0
  1  2  2  0  0  0
  2  3  1  0  0  0
  3  4  2  0  0  0
  3  5  1  0  0  0
  5  6  2  0  0  0
  6  7  1  0  0  0
  7  8  2  0  0  0
  8  9  1  0  0  0
  9 10  2  0  0  0
  5 10  1  0  0  0
 10 11  1  0  0  0
  1 11  1  0  0  0
  8 12  1  0  0  0
  6 13  1  0  0  0
  2 14  1  0  0  0
 21 24  1  0  0  0
 20 25  1  0  0  0
 12 15  1  0  0  0
 13 16  1  0  0  0
 14 17  1  0  0  0
 24 26  1  0  0  0
 25 27  1  0  0  0
M  END
> <minimizedAffinity>
-6.43021

$$$$
