Quercetin


 27 29  0  0  0  0  0  0  0  0999 V2000
   50.3800   12.5967    7.3599 C   0  0  0  0  0  0  0  0  0  0  0  0
   50.7590   11.4844    6.6980 C   0  0  0  0  0  0  0  0  0  0  0  0
   50.2176   11.2727    5.3284 C   0  0  0  0  0  0  0  0  0  0  0  0
   50.5129   10.3030    4.6337 O   0  0  0  0  0  0  0  0  0  0  0  0
   49.2923   12.2862    4.8089 C   0  0  0  0  0  0  0  0  0  0  0  0
   48.7361   12.1823    3.5280 C   0  0  0  0  0  0  0  0  0  0  0  0
   47.8578   13.1565    3.0602 C   0  0  0  0  0  0  0  0  0  0  0  0
   47.5393   14.2323    3.8838 C   0  0  0  0  0  0  0  0  0  0  0  0
   48.0867   14.3471    5.1591 C   0  0  0  0  0  0  0  0  0  0  0  0
   48.9693   13.3700    5.6201 C   0  0  0  0  0  0  0  0  0  0  0  0
   49.4876   13.5399    6.8780 O   0  0  0  0  0  0  0  0  0  0  0  0
   46.6841   15.2106    3.4706 O   0  0  0  0  0  0  0  0  0  0  0  0
   49.0136   11.1466    2.6760 O   0  0  0  0  0  0  0  0  0  0  0  0
   51.6161   10.5206    7.2000 O   0  0  0  0  0  0  0  0  0  0  0  0
   46.3823   15.0033    2.5696 H   0  0  0  0  0  0  0  0  0  0  0  0
   49.6369   10.5344    3.1320 H   0  0  0  0  0  0  0  0  0  0  0  0
   51.7568   10.6809    8.1481 H   0  0  0  0  0  0  0  0  0  0  0  0
   52.1916   13.4526    8.8552 C   0  0  0  0  0  0  0  0  0  0  0  0
   52.7018   13.7363   10.1262 C   0  0  0  0  0  0  0  0  0  0  0  0
   51.9067   13.5007   11.2397 C   0  0  0  0  0  0  0  0  0  0  0  0
   50.6159   12.9988   11.0893 C   0  0  0  0  0  0  0  0  0  0  0  0
   50.1001   12.7137    9.8318 C   0  0  0  0  0  0  0  0  0  0  0  0
   50.8947   12.9279    8.6994 C   0  0  0  0  0  0  0  0  0  0  0  0
   49.8415   12.7733   12.1913 O   0  0  0  0  0  0  0  0  0  0  0  0
   52.3497   13.7447   12.5093 O   0  0  0  0  0  0  0  0  0  0  0  0
   50.3988   13.0475   12.9472 H   0  0  0  0  0  0  0  0  0  0  0  0
   53.2604   14.0829   12.4572 H   0  0  0  0  0  0  0  0  0  0  0  0
 18 19  2  0  0  0
 19 20  1  0  0  0
 20 21  2  0  0  0
 21 22  1  0  0  0
 22 23  2  0  0  0
 18 23  1  0  0  0
 23  1  1  0  0  0
  1  2  2  0  0  0
  2  3  1  0  0  0
  3  4  2  0  0  0
  3  5  1  0  0  0
  5  6  2  0  0  0
  6  7  1  0  0  0
  7  8  2  0  0  0
  8  9  1  0  0  0
  9 10  2  0  0  0
  5 10  1  0  0  0
 10 11  1  0  0  0
  1 11  1  0  0  0
  8 12  1  0  0  0
  6 13  1  0  0  0
  2 14  1  0  0  0
 21 24  1  0  0  0
 20 25  1  0  0  0
 12 15  1  0  0  0
 13 16  1  0  0  0
 14 17  1  0  0  0
 24 26  1  0  0  0
 25 27  1  0  0  0
M  END
> <minimizedAffinity>
-7.35567

$$$$
Quercetin


 27 29  0  0  0  0  0  0  0  0999 V2000
   49.3000   13.0466    5.5979 C   0  0  0  0  0  0  0  0  0  0  0  0
   48.5574   14.1558    5.4053 C   0  0  0  0  0  0  0  0  0  0  0  0
   47.7430   14.2394    4.1629 C   0  0  0  0  0  0  0  0  0  0  0  0
   47.0188   15.1966    3.8995 O   0  0  0  0  0  0  0  0  0  0  0  0
   47.8268   13.1108    3.2288 C   0  0  0  0  0  0  0  0  0  0  0  0
   47.0921   13.0904    2.0368 C   0  0  0  0  0  0  0  0  0  0  0  0
   47.1923   12.0083    1.1660 C   0  0  0  0  0  0  0  0  0  0  0  0
   48.0339   10.9500    1.4955 C   0  0  0  0  0  0  0  0  0  0  0  0
   48.7690   10.9584    2.6782 C   0  0  0  0  0  0  0  0  0  0  0  0
   48.6607   12.0434    3.5485 C   0  0  0  0  0  0  0  0  0  0  0  0
   49.3971   11.9932    4.7039 O   0  0  0  0  0  0  0  0  0  0  0  0
   48.1658    9.8691    0.6748 O   0  0  0  0  0  0  0  0  0  0  0  0
   46.2498   14.1032    1.6623 O   0  0  0  0  0  0  0  0  0  0  0  0
   48.4971   15.2271    6.2795 O   0  0  0  0  0  0  0  0  0  0  0  0
   47.6002    9.9972   -0.1058 H   0  0  0  0  0  0  0  0  0  0  0  0
   46.2794   14.7989    2.3597 H   0  0  0  0  0  0  0  0  0  0  0  0
   49.1940   15.1317    6.9501 H   0  0  0  0  0  0  0  0  0  0  0  0
   49.5991   13.2168    8.0742 C   0  0  0  0  0  0  0  0  0  0  0  0
   50.3690   13.0575    9.2309 C   0  0  0  0  0  0  0  0  0  0  0  0
   51.6413   12.5122    9.1239 C   0  0  0  0  0  0  0  0  0  0  0  0
   52.1372   12.1209    7.8824 C   0  0  0  0  0  0  0  0  0  0  0  0
   51.3808   12.2750    6.7279 C   0  0  0  0  0  0  0  0  0  0  0  0
   50.1029   12.8400    6.8150 C   0  0  0  0  0  0  0  0  0  0  0  0
   53.3890   11.5832    7.7891 O   0  0  0  0  0  0  0  0  0  0  0  0
   52.4488   12.3414   10.2133 O   0  0  0  0  0  0  0  0  0  0  0  0
   53.7216   11.5664    8.7090 H   0  0  0  0  0  0  0  0  0  0  0  0
   51.9750   12.6622   11.0002 H   0  0  0  0  0  0  0  0  0  0  0  0
 18 19  2  0  0  0
 19 20  1  0  0  0
 20 21  2  0  0  0
 21 22  1  0  0  0
 22 23  2  0  0  0
 18 23  1  0  0  0
 23  1  1  0  0  0
  1  2  2  0  0  0
  2  3  1  0  0  0
  3  4  2  0  0  0
  3  5  1  0  0  0
  5  6  2  0  0  0
  6  7  1  0  0  0
  7  8  2  0  0  0
  8  9  1  0  0  0
  9 10  2  0  0  0
  5 10  1  0  0  0
 10 11  1  0  0  0
  1 11  1  0  0  0
  8 12  1  0  0  0
  6 13  1  0  0  0
  2 14  1  0  0  0
 21 24  1  0  0  0
 20 25  1  0  0  0
 12 15  1  0  0  0
 13 16  1  0  0  0
 14 17  1  0  0  0
 24 26  1  0  0  0
 25 27  1  0  0  0
M  END
> <minimizedAffinity>
-6.66106

$$$$
Quercetin


 27 29  0  0  0  0  0  0  0  0999 V2000
   50.4177   12.6123    7.7687 C   0  0  0  0  0  0  0  0  0  0  0  0
   51.6618   12.8911    8.2087 C   0  0  0  0  0  0  0  0  0  0  0  0
   51.8471   13.1226    9.6668 C   0  0  0  0  0  0  0  0  0  0  0  0
   52.9402   13.3656   10.1729 O   0  0  0  0  0  0  0  0  0  0  0  0
   50.6519   13.0488   10.5149 C   0  0  0  0  0  0  0  0  0  0  0  0
   50.7235   13.2426   11.8999 C   0  0  0  0  0  0  0  0  0  0  0  0
   49.5733   13.1704   12.6817 C   0  0  0  0  0  0  0  0  0  0  0  0
   48.3529   12.9058   12.0673 C   0  0  0  0  0  0  0  0  0  0  0  0
   48.2691   12.7105   10.6911 C   0  0  0  0  0  0  0  0  0  0  0  0
   49.4257   12.7797    9.9141 C   0  0  0  0  0  0  0  0  0  0  0  0
   49.2867   12.5672    8.5668 O   0  0  0  0  0  0  0  0  0  0  0  0
   47.1996   12.8261   12.7903 O   0  0  0  0  0  0  0  0  0  0  0  0
   51.8961   13.5057   12.5567 O   0  0  0  0  0  0  0  0  0  0  0  0
   52.7829   12.9798    7.4022 O   0  0  0  0  0  0  0  0  0  0  0  0
   47.4059   12.9813   13.7280 H   0  0  0  0  0  0  0  0  0  0  0  0
   52.6206   13.5342   11.8891 H   0  0  0  0  0  0  0  0  0  0  0  0
   52.5066   12.9842    6.4705 H   0  0  0  0  0  0  0  0  0  0  0  0
   49.6408   13.3244    5.5016 C   0  0  0  0  0  0  0  0  0  0  0  0
   49.3327   13.0448    4.1663 C   0  0  0  0  0  0  0  0  0  0  0  0
   49.5257   11.7567    3.6855 C   0  0  0  0  0  0  0  0  0  0  0  0
   50.0289   10.7617    4.5206 C   0  0  0  0  0  0  0  0  0  0  0  0
   50.3378   11.0291    5.8479 C   0  0  0  0  0  0  0  0  0  0  0  0
   50.1320   12.3179    6.3543 C   0  0  0  0  0  0  0  0  0  0  0  0
   50.2174    9.4988    4.0364 O   0  0  0  0  0  0  0  0  0  0  0  0
   49.2329   11.4150    2.3950 O   0  0  0  0  0  0  0  0  0  0  0  0
   49.9444    9.5488    3.0983 H   0  0  0  0  0  0  0  0  0  0  0  0
   48.8886   12.2027    1.9393 H   0  0  0  0  0  0  0  0  0  0  0  0
 18 19  2  0  0  0
 19 20  1  0  0  0
 20 21  2  0  0  0
 21 22  1  0  0  0
 22 23  2  0  0  0
 18 23  1  0  0  0
 23  1  1  0  0  0
  1  2  2  0  0  0
  2  3  1  0  0  0
  3  4  2  0  0  0
  3  5  1  0  0  0
  5  6  2  0  0  0
  6  7  1  0  0  0
  7  8  2  0  0  0
  8  9  1  0  0  0
  9 10  2  0  0  0
  5 10  1  0  0  0
 10 11  1  0  0  0
  1 11  1  0  0  0
  8 12  1  0  0  0
  6 13  1  0  0  0
  2 14  1  0  0  0
 21 24  1  0  0  0
 20 25  1  0  0  0
 12 15  1  0  0  0
 13 16  1  0  0  0
 14 17  1  0  0  0
 24 26  1  0  0  0
 25 27  1  0  0  0
M  END
> <minimizedAffinity>
-6.61720

$$$$
Quercetin


 27 29  0  0  0  0  0  0  0  0999 V2000
   50.2625   12.4270    7.0105 C   0  0  0  0  0  0  0  0  0  0  0  0
   50.9091   11.2747    6.7402 C   0  0  0  0  0  0  0  0  0  0  0  0
   51.7436   10.6773    7.8175 C   0  0  0  0  0  0  0  0  0  0  0  0
   52.3587    9.6223    7.6813 O   0  0  0  0  0  0  0  0  0  0  0  0
   51.8147   11.4027    9.0910 C   0  0  0  0  0  0  0  0  0  0  0  0
   52.5658   10.9182   10.1690 C   0  0  0  0  0  0  0  0  0  0  0  0
   52.6191   11.6280   11.3660 C   0  0  0  0  0  0  0  0  0  0  0  0
   51.9182   12.8254   11.4746 C   0  0  0  0  0  0  0  0  0  0  0  0
   51.1673   13.3171   10.4099 C   0  0  0  0  0  0  0  0  0  0  0  0
   51.1144   12.5990    9.2150 C   0  0  0  0  0  0  0  0  0  0  0  0
   50.3501   13.1232    8.2047 O   0  0  0  0  0  0  0  0  0  0  0  0
   51.9403   13.5561   12.6256 O   0  0  0  0  0  0  0  0  0  0  0  0
   53.2742    9.7473   10.1182 O   0  0  0  0  0  0  0  0  0  0  0  0
   50.8555   10.6045    5.5305 O   0  0  0  0  0  0  0  0  0  0  0  0
   52.4978   13.0977   13.2774 H   0  0  0  0  0  0  0  0  0  0  0  0
   53.1540    9.3560    9.2216 H   0  0  0  0  0  0  0  0  0  0  0  0
   50.4312   11.1749    4.8679 H   0  0  0  0  0  0  0  0  0  0  0  0
   49.0601   12.4377    4.8186 C   0  0  0  0  0  0  0  0  0  0  0  0
   48.2443   13.0624    3.8697 C   0  0  0  0  0  0  0  0  0  0  0  0
   47.7353   14.3246    4.1447 C   0  0  0  0  0  0  0  0  0  0  0  0
   48.0262   14.9527    5.3535 C   0  0  0  0  0  0  0  0  0  0  0  0
   48.8353   14.3410    6.3022 C   0  0  0  0  0  0  0  0  0  0  0  0
   49.3719   13.0763    6.0337 C   0  0  0  0  0  0  0  0  0  0  0  0
   47.5180   16.1930    5.6147 O   0  0  0  0  0  0  0  0  0  0  0  0
   46.9426   14.9942    3.2553 O   0  0  0  0  0  0  0  0  0  0  0  0
   46.9853   16.4149    4.8247 H   0  0  0  0  0  0  0  0  0  0  0  0
   46.8329   14.4395    2.4635 H   0  0  0  0  0  0  0  0  0  0  0  0
 18 19  2  0  0  0
 19 20  1  0  0  0
 20 21  2  0  0  0
 21 22  1  0  0  0
 22 23  2  0  0  0
 18 23  1  0  0  0
 23  1  1  0  0  0
  1  2  2  0  0  0
  2  3  1  0  0  0
  3  4  2  0  0  0
  3  5  1  0  0  0
  5  6  2  0  0  0
  6  7  1  0  0  0
  7  8  2  0  0  0
  8  9  1  0  0  0
  9 10  2  0  0  0
  5 10  1  0  0  0
 10 11  1  0  0  0
  1 11  1  0  0  0
  8 12  1  0  0  0
  6 13  1  0  0  0
  2 14  1  0  0  0
 21 24  1  0  0  0
 20 25  1  0  0  0
 12 15  1  0  0  0
 13 16  1  0  0  0
 14 17  1  0  0  0
 24 26  1  0  0  0
 25 27  1  0  0  0
M  END
> <minimizedAffinity>
-6.52281

$$$$
Quercetin


 27 29  0  0  0  0  0  0  0  0999 V2000
   49.0928   11.8634    5.1217 C   0  0  0  0  0  0  0  0  0  0  0  0
   49.4790   10.7382    4.4862 C   0  0  0  0  0  0  0  0  0  0  0  0
   50.6589   10.0076    5.0227 C   0  0  0  0  0  0  0  0  0  0  0  0
   51.0818    8.9643    4.5299 O   0  0  0  0  0  0  0  0  0  0  0  0
   51.3268   10.5820    6.1963 C   0  0  0  0  0  0  0  0  0  0  0  0
   52.4395    9.9648    6.7809 C   0  0  0  0  0  0  0  0  0  0  0  0
   53.0570   10.5327    7.8925 C   0  0  0  0  0  0  0  0  0  0  0  0
   52.5545   11.7221    8.4119 C   0  0  0  0  0  0  0  0  0  0  0  0
   51.4481   12.3448    7.8398 C   0  0  0  0  0  0  0  0  0  0  0  0
   50.8314   11.7684    6.7290 C   0  0  0  0  0  0  0  0  0  0  0  0
   49.7389   12.4175    6.2144 O   0  0  0  0  0  0  0  0  0  0  0  0
   53.1252   12.3165    9.4983 O   0  0  0  0  0  0  0  0  0  0  0  0
   52.9758    8.7951    6.3121 O   0  0  0  0  0  0  0  0  0  0  0  0
   48.8583   10.2111    3.3671 O   0  0  0  0  0  0  0  0  0  0  0  0
   53.8799   11.7772    9.7905 H   0  0  0  0  0  0  0  0  0  0  0  0
   52.4505    8.5106    5.5282 H   0  0  0  0  0  0  0  0  0  0  0  0
   48.2257   10.8605    3.0171 H   0  0  0  0  0  0  0  0  0  0  0  0
   48.0565   13.8054    3.9363 C   0  0  0  0  0  0  0  0  0  0  0  0
   46.9413   14.5640    3.5663 C   0  0  0  0  0  0  0  0  0  0  0  0
   45.6785   14.1427    3.9608 C   0  0  0  0  0  0  0  0  0  0  0  0
   45.5268   12.9753    4.7055 C   0  0  0  0  0  0  0  0  0  0  0  0
   46.6278   12.2152    5.0782 C   0  0  0  0  0  0  0  0  0  0  0  0
   47.9099   12.6350    4.7046 C   0  0  0  0  0  0  0  0  0  0  0  0
   44.2799   12.5688    5.0860 O   0  0  0  0  0  0  0  0  0  0  0  0
   44.5499   14.8448    3.6429 O   0  0  0  0  0  0  0  0  0  0  0  0
   43.6746   13.2407    4.7126 H   0  0  0  0  0  0  0  0  0  0  0  0
   44.8107   15.6306    3.1319 H   0  0  0  0  0  0  0  0  0  0  0  0
 18 19  2  0  0  0
 19 20  1  0  0  0
 20 21  2  0  0  0
 21 22  1  0  0  0
 22 23  2  0  0  0
 18 23  1  0  0  0
 23  1  1  0  0  0
  1  2  2  0  0  0
  2  3  1  0  0  0
  3  4  2  0  0  0
  3  5  1  0  0  0
  5  6  2  0  0  0
  6  7  1  0  0  0
  7  8  2  0  0  0
  8  9  1  0  0  0
  9 10  2  0  0  0
  5 10  1  0  0  0
 10 11  1  0  0  0
  1 11  1  0  0  0
  8 12  1  0  0  0
  6 13  1  0  0  0
  2 14  1  0  0  0
 21 24  1  0  0  0
 20 25  1  0  0  0
 12 15  1  0  0  0
 13 16  1  0  0  0
 14 17  1  0  0  0
 24 26  1  0  0  0
 25 27  1  0  0  0
M  END
> <minimizedAffinity>
-6.36610

$$$$
