Quercetin


 27 29  0  0  0  0  0  0  0  0999 V2000
   79.9128   22.1431   -0.6977 C   0  0  0  0  0  0  0  0  0  0  0  0
   80.7137   21.4301    0.1203 C   0  0  0  0  0  0  0  0  0  0  0  0
   80.2529   21.2000    1.5162 C   0  0  0  0  0  0  0  0  0  0  0  0
   80.8973   20.5497    2.3359 O   0  0  0  0  0  0  0  0  0  0  0  0
   78.9646   21.7868    1.9025 C   0  0  0  0  0  0  0  0  0  0  0  0
   78.4401   21.6191    3.1900 C   0  0  0  0  0  0  0  0  0  0  0  0
   77.2164   22.1894    3.5320 C   0  0  0  0  0  0  0  0  0  0  0  0
   76.5245   22.9295    2.5778 C   0  0  0  0  0  0  0  0  0  0  0  0
   77.0354   23.1026    1.2940 C   0  0  0  0  0  0  0  0  0  0  0  0
   78.2596   22.5249    0.9565 C   0  0  0  0  0  0  0  0  0  0  0  0
   78.7087   22.7171   -0.3246 O   0  0  0  0  0  0  0  0  0  0  0  0
   75.3235   23.5075    2.8654 O   0  0  0  0  0  0  0  0  0  0  0  0
   79.0771   20.9020    4.1675 O   0  0  0  0  0  0  0  0  0  0  0  0
   81.9378   20.8958   -0.2425 O   0  0  0  0  0  0  0  0  0  0  0  0
   75.0913   23.3058    3.7880 H   0  0  0  0  0  0  0  0  0  0  0  0
   79.9244   20.5633    3.7951 H   0  0  0  0  0  0  0  0  0  0  0  0
   82.2014   21.2580   -1.1049 H   0  0  0  0  0  0  0  0  0  0  0  0
   80.3395   23.7016   -2.6054 C   0  0  0  0  0  0  0  0  0  0  0  0
   80.6232   23.9417   -3.9538 C   0  0  0  0  0  0  0  0  0  0  0  0
   80.8243   22.8618   -4.8030 C   0  0  0  0  0  0  0  0  0  0  0  0
   80.7542   21.5593   -4.3139 C   0  0  0  0  0  0  0  0  0  0  0  0
   80.4730   21.3103   -2.9768 C   0  0  0  0  0  0  0  0  0  0  0  0
   80.2494   22.3869   -2.1105 C   0  0  0  0  0  0  0  0  0  0  0  0
   80.9564   20.5046   -5.1574 O   0  0  0  0  0  0  0  0  0  0  0  0
   81.0926   23.0276   -6.1327 O   0  0  0  0  0  0  0  0  0  0  0  0
   81.1408   20.9134   -6.0269 H   0  0  0  0  0  0  0  0  0  0  0  0
   81.1041   23.9809   -6.3272 H   0  0  0  0  0  0  0  0  0  0  0  0
 18 19  2  0  0  0
 19 20  1  0  0  0
 20 21  2  0  0  0
 21 22  1  0  0  0
 22 23  2  0  0  0
 18 23  1  0  0  0
 23  1  1  0  0  0
  1  2  2  0  0  0
  2  3  1  0  0  0
  3  4  2  0  0  0
  3  5  1  0  0  0
  5  6  2  0  0  0
  6  7  1  0  0  0
  7  8  2  0  0  0
  8  9  1  0  0  0
  9 10  2  0  0  0
  5 10  1  0  0  0
 10 11  1  0  0  0
  1 11  1  0  0  0
  8 12  1  0  0  0
  6 13  1  0  0  0
  2 14  1  0  0  0
 21 24  1  0  0  0
 20 25  1  0  0  0
 12 15  1  0  0  0
 13 16  1  0  0  0
 14 17  1  0  0  0
 24 26  1  0  0  0
 25 27  1  0  0  0
M  END
> <minimizedAffinity>
-8.27100

$$$$
Quercetin


 27 29  0  0  0  0  0  0  0  0999 V2000
   79.8102   21.9259   -0.1143 C   0  0  0  0  0  0  0  0  0  0  0  0
   80.6824   21.3233    0.7194 C   0  0  0  0  0  0  0  0  0  0  0  0
   80.2129   20.9859    2.0904 C   0  0  0  0  0  0  0  0  0  0  0  0
   80.9207   20.4209    2.9209 O   0  0  0  0  0  0  0  0  0  0  0  0
   78.8358   21.3552    2.4375 C   0  0  0  0  0  0  0  0  0  0  0  0
   78.2976   21.0727    3.6991 C   0  0  0  0  0  0  0  0  0  0  0  0
   76.9885   21.4369    4.0041 C   0  0  0  0  0  0  0  0  0  0  0  0
   76.2246   22.0870    3.0393 C   0  0  0  0  0  0  0  0  0  0  0  0
   76.7483   22.3726    1.7811 C   0  0  0  0  0  0  0  0  0  0  0  0
   78.0590   22.0011    1.4803 C   0  0  0  0  0  0  0  0  0  0  0  0
   78.5187   22.2959    0.2227 O   0  0  0  0  0  0  0  0  0  0  0  0
   74.9385   22.4637    3.2911 O   0  0  0  0  0  0  0  0  0  0  0  0
   79.0029   20.4362    4.6854 O   0  0  0  0  0  0  0  0  0  0  0  0
   81.9870   20.9952    0.3943 O   0  0  0  0  0  0  0  0  0  0  0  0
   74.7075   22.2031    4.1992 H   0  0  0  0  0  0  0  0  0  0  0  0
   79.9055   20.2433    4.3399 H   0  0  0  0  0  0  0  0  0  0  0  0
   82.2220   21.4176   -0.4488 H   0  0  0  0  0  0  0  0  0  0  0  0
   80.5054   21.2421   -2.4164 C   0  0  0  0  0  0  0  0  0  0  0  0
   80.8696   21.5516   -3.7308 C   0  0  0  0  0  0  0  0  0  0  0  0
   80.8744   22.8802   -4.1340 C   0  0  0  0  0  0  0  0  0  0  0  0
   80.5111   23.8873   -3.2428 C   0  0  0  0  0  0  0  0  0  0  0  0
   80.1481   23.5905   -1.9355 C   0  0  0  0  0  0  0  0  0  0  0  0
   80.1555   22.2579   -1.5069 C   0  0  0  0  0  0  0  0  0  0  0  0
   80.5168   25.1906   -3.6507 O   0  0  0  0  0  0  0  0  0  0  0  0
   81.2319   23.2505   -5.4000 O   0  0  0  0  0  0  0  0  0  0  0  0
   80.7924   25.1563   -4.5888 H   0  0  0  0  0  0  0  0  0  0  0  0
   81.4632   22.4489   -5.9007 H   0  0  0  0  0  0  0  0  0  0  0  0
 18 19  2  0  0  0
 19 20  1  0  0  0
 20 21  2  0  0  0
 21 22  1  0  0  0
 22 23  2  0  0  0
 18 23  1  0  0  0
 23  1  1  0  0  0
  1  2  2  0  0  0
  2  3  1  0  0  0
  3  4  2  0  0  0
  3  5  1  0  0  0
  5  6  2  0  0  0
  6  7  1  0  0  0
  7  8  2  0  0  0
  8  9  1  0  0  0
  9 10  2  0  0  0
  5 10  1  0  0  0
 10 11  1  0  0  0
  1 11  1  0  0  0
  8 12  1  0  0  0
  6 13  1  0  0  0
  2 14  1  0  0  0
 21 24  1  0  0  0
 20 25  1  0  0  0
 12 15  1  0  0  0
 13 16  1  0  0  0
 14 17  1  0  0  0
 24 26  1  0  0  0
 25 27  1  0  0  0
M  END
> <minimizedAffinity>
-7.69799

$$$$
Quercetin


 27 29  0  0  0  0  0  0  0  0999 V2000
   77.9846   22.4680    0.8111 C   0  0  0  0  0  0  0  0  0  0  0  0
   77.9158   23.7826    0.5175 C   0  0  0  0  0  0  0  0  0  0  0  0
   78.5844   24.2525   -0.7259 C   0  0  0  0  0  0  0  0  0  0  0  0
   78.5667   25.4248   -1.0941 O   0  0  0  0  0  0  0  0  0  0  0  0
   79.2876   23.2468   -1.5304 C   0  0  0  0  0  0  0  0  0  0  0  0
   79.9399   23.5874   -2.7219 C   0  0  0  0  0  0  0  0  0  0  0  0
   80.6029   22.6140   -3.4651 C   0  0  0  0  0  0  0  0  0  0  0  0
   80.6100   21.3001   -3.0062 C   0  0  0  0  0  0  0  0  0  0  0  0
   79.9643   20.9490   -1.8234 C   0  0  0  0  0  0  0  0  0  0  0  0
   79.2982   21.9281   -1.0858 C   0  0  0  0  0  0  0  0  0  0  0  0
   78.6694   21.5242    0.0636 O   0  0  0  0  0  0  0  0  0  0  0  0
   81.2459   20.3125   -3.6986 O   0  0  0  0  0  0  0  0  0  0  0  0
   79.9653   24.8628   -3.2201 O   0  0  0  0  0  0  0  0  0  0  0  0
   77.2687   24.7311    1.2901 O   0  0  0  0  0  0  0  0  0  0  0  0
   81.6484   20.6975   -4.4958 H   0  0  0  0  0  0  0  0  0  0  0  0
   79.4682   25.4438   -2.5983 H   0  0  0  0  0  0  0  0  0  0  0  0
   77.0302   24.3373    2.1459 H   0  0  0  0  0  0  0  0  0  0  0  0
   78.0151   21.0232    2.8512 C   0  0  0  0  0  0  0  0  0  0  0  0
   77.3784   20.4413    3.9522 C   0  0  0  0  0  0  0  0  0  0  0  0
   76.0431   20.7363    4.1923 C   0  0  0  0  0  0  0  0  0  0  0  0
   75.3530   21.6079    3.3528 C   0  0  0  0  0  0  0  0  0  0  0  0
   75.9760   22.1907    2.2569 C   0  0  0  0  0  0  0  0  0  0  0  0
   77.3167   21.8899    1.9895 C   0  0  0  0  0  0  0  0  0  0  0  0
   74.0405   21.8931    3.5998 O   0  0  0  0  0  0  0  0  0  0  0  0
   75.3597   20.1917    5.2430 O   0  0  0  0  0  0  0  0  0  0  0  0
   73.8236   21.3858    4.4077 H   0  0  0  0  0  0  0  0  0  0  0  0
   75.9635   19.6054    5.7313 H   0  0  0  0  0  0  0  0  0  0  0  0
 18 19  2  0  0  0
 19 20  1  0  0  0
 20 21  2  0  0  0
 21 22  1  0  0  0
 22 23  2  0  0  0
 18 23  1  0  0  0
 23  1  1  0  0  0
  1  2  2  0  0  0
  2  3  1  0  0  0
  3  4  2  0  0  0
  3  5  1  0  0  0
  5  6  2  0  0  0
  6  7  1  0  0  0
  7  8  2  0  0  0
  8  9  1  0  0  0
  9 10  2  0  0  0
  5 10  1  0  0  0
 10 11  1  0  0  0
  1 11  1  0  0  0
  8 12  1  0  0  0
  6 13  1  0  0  0
  2 14  1  0  0  0
 21 24  1  0  0  0
 20 25  1  0  0  0
 12 15  1  0  0  0
 13 16  1  0  0  0
 14 17  1  0  0  0
 24 26  1  0  0  0
 25 27  1  0  0  0
M  END
> <minimizedAffinity>
-7.64278

$$$$
Quercetin


 27 29  0  0  0  0  0  0  0  0999 V2000
   78.2941   22.7235    0.6779 C   0  0  0  0  0  0  0  0  0  0  0  0
   78.9506   21.5591    0.8575 C   0  0  0  0  0  0  0  0  0  0  0  0
   79.9464   21.1572   -0.1724 C   0  0  0  0  0  0  0  0  0  0  0  0
   80.6106   20.1262   -0.0957 O   0  0  0  0  0  0  0  0  0  0  0  0
   80.1235   22.0541   -1.3202 C   0  0  0  0  0  0  0  0  0  0  0  0
   81.0425   21.7690   -2.3376 C   0  0  0  0  0  0  0  0  0  0  0  0
   81.1888   22.6356   -3.4179 C   0  0  0  0  0  0  0  0  0  0  0  0
   80.4078   23.7862   -3.4731 C   0  0  0  0  0  0  0  0  0  0  0  0
   79.4911   24.0810   -2.4672 C   0  0  0  0  0  0  0  0  0  0  0  0
   79.3525   23.2110   -1.3854 C   0  0  0  0  0  0  0  0  0  0  0  0
   78.4445   23.5568   -0.4182 O   0  0  0  0  0  0  0  0  0  0  0  0
   80.5147   24.6645   -4.5106 O   0  0  0  0  0  0  0  0  0  0  0  0
   81.8358   20.6528   -2.3348 O   0  0  0  0  0  0  0  0  0  0  0  0
   78.7655   20.7061    1.9315 O   0  0  0  0  0  0  0  0  0  0  0  0
   81.1862   24.3353   -5.1323 H   0  0  0  0  0  0  0  0  0  0  0  0
   81.6269   20.1313   -1.5251 H   0  0  0  0  0  0  0  0  0  0  0  0
   77.9801   20.9865    2.4304 H   0  0  0  0  0  0  0  0  0  0  0  0
   77.3634   24.5885    2.0585 C   0  0  0  0  0  0  0  0  0  0  0  0
   76.4705   25.0780    3.0173 C   0  0  0  0  0  0  0  0  0  0  0  0
   75.5341   24.2142    3.5694 C   0  0  0  0  0  0  0  0  0  0  0  0
   75.4805   22.8824    3.1647 C   0  0  0  0  0  0  0  0  0  0  0  0
   76.3628   22.3866    2.2136 C   0  0  0  0  0  0  0  0  0  0  0  0
   77.3252   23.2390    1.6599 C   0  0  0  0  0  0  0  0  0  0  0  0
   74.5537   22.0422    3.7125 O   0  0  0  0  0  0  0  0  0  0  0  0
   74.6419   24.6262    4.5192 O   0  0  0  0  0  0  0  0  0  0  0  0
   74.0502   22.6012    4.3378 H   0  0  0  0  0  0  0  0  0  0  0  0
   74.8021   25.5681    4.7031 H   0  0  0  0  0  0  0  0  0  0  0  0
 18 19  2  0  0  0
 19 20  1  0  0  0
 20 21  2  0  0  0
 21 22  1  0  0  0
 22 23  2  0  0  0
 18 23  1  0  0  0
 23  1  1  0  0  0
  1  2  2  0  0  0
  2  3  1  0  0  0
  3  4  2  0  0  0
  3  5  1  0  0  0
  5  6  2  0  0  0
  6  7  1  0  0  0
  7  8  2  0  0  0
  8  9  1  0  0  0
  9 10  2  0  0  0
  5 10  1  0  0  0
 10 11  1  0  0  0
  1 11  1  0  0  0
  8 12  1  0  0  0
  6 13  1  0  0  0
  2 14  1  0  0  0
 21 24  1  0  0  0
 20 25  1  0  0  0
 12 15  1  0  0  0
 13 16  1  0  0  0
 14 17  1  0  0  0
 24 26  1  0  0  0
 25 27  1  0  0  0
M  END
> <minimizedAffinity>
-7.48791

$$$$
Quercetin


 27 29  0  0  0  0  0  0  0  0999 V2000
   78.9705   22.4342    0.0267 C   0  0  0  0  0  0  0  0  0  0  0  0
   77.7583   22.9626    0.2918 C   0  0  0  0  0  0  0  0  0  0  0  0
   77.2421   22.8532    1.6830 C   0  0  0  0  0  0  0  0  0  0  0  0
   76.1592   23.3159    2.0341 O   0  0  0  0  0  0  0  0  0  0  0  0
   78.0880   22.1574    2.6595 C   0  0  0  0  0  0  0  0  0  0  0  0
   77.6952   22.0103    3.9955 C   0  0  0  0  0  0  0  0  0  0  0  0
   78.5154   21.3425    4.9015 C   0  0  0  0  0  0  0  0  0  0  0  0
   79.7284   20.8220    4.4601 C   0  0  0  0  0  0  0  0  0  0  0  0
   80.1302   20.9626    3.1342 C   0  0  0  0  0  0  0  0  0  0  0  0
   79.3059   21.6365    2.2326 C   0  0  0  0  0  0  0  0  0  0  0  0
   79.7568   21.7563    0.9435 O   0  0  0  0  0  0  0  0  0  0  0  0
   80.5649   20.1599    5.3092 O   0  0  0  0  0  0  0  0  0  0  0  0
   76.5140   22.5015    4.4842 O   0  0  0  0  0  0  0  0  0  0  0  0
   76.9548   23.6002   -0.6373 O   0  0  0  0  0  0  0  0  0  0  0  0
   80.1609   20.1378    6.1936 H   0  0  0  0  0  0  0  0  0  0  0  0
   76.0354   22.9404    3.7428 H   0  0  0  0  0  0  0  0  0  0  0  0
   77.3168   23.4532   -1.5271 H   0  0  0  0  0  0  0  0  0  0  0  0
   79.7388   23.7804   -1.9349 C   0  0  0  0  0  0  0  0  0  0  0  0
   80.2989   23.8773   -3.2128 C   0  0  0  0  0  0  0  0  0  0  0  0
   80.7230   22.7203   -3.8524 C   0  0  0  0  0  0  0  0  0  0  0  0
   80.6008   21.4833   -3.2235 C   0  0  0  0  0  0  0  0  0  0  0  0
   80.0458   21.3764   -1.9549 C   0  0  0  0  0  0  0  0  0  0  0  0
   79.5961   22.5307   -1.3030 C   0  0  0  0  0  0  0  0  0  0  0  0
   81.0237   20.3520   -3.8607 O   0  0  0  0  0  0  0  0  0  0  0  0
   81.2671   22.7448   -5.1058 O   0  0  0  0  0  0  0  0  0  0  0  0
   81.3762   20.6662   -4.7175 H   0  0  0  0  0  0  0  0  0  0  0  0
   81.2823   23.6669   -5.4161 H   0  0  0  0  0  0  0  0  0  0  0  0
 18 19  2  0  0  0
 19 20  1  0  0  0
 20 21  2  0  0  0
 21 22  1  0  0  0
 22 23  2  0  0  0
 18 23  1  0  0  0
 23  1  1  0  0  0
  1  2  2  0  0  0
  2  3  1  0  0  0
  3  4  2  0  0  0
  3  5  1  0  0  0
  5  6  2  0  0  0
  6  7  1  0  0  0
  7  8  2  0  0  0
  8  9  1  0  0  0
  9 10  2  0  0  0
  5 10  1  0  0  0
 10 11  1  0  0  0
  1 11  1  0  0  0
  8 12  1  0  0  0
  6 13  1  0  0  0
  2 14  1  0  0  0
 21 24  1  0  0  0
 20 25  1  0  0  0
 12 15  1  0  0  0
 13 16  1  0  0  0
 14 17  1  0  0  0
 24 26  1  0  0  0
 25 27  1  0  0  0
M  END
> <minimizedAffinity>
-7.42693

$$$$
