Quercetin


 27 29  0  0  0  0  0  0  0  0999 V2000
   66.6623   29.8287   15.4650 C   0  0  0  0  0  0  0  0  0  0  0  0
   65.7456   30.0366   14.4978 C   0  0  0  0  0  0  0  0  0  0  0  0
   65.6544   29.0358   13.4006 C   0  0  0  0  0  0  0  0  0  0  0  0
   64.8429   29.1211   12.4817 O   0  0  0  0  0  0  0  0  0  0  0  0
   66.5876   27.9043   13.4455 C   0  0  0  0  0  0  0  0  0  0  0  0
   66.5750   26.9050   12.4646 C   0  0  0  0  0  0  0  0  0  0  0  0
   67.4739   25.8433   12.5289 C   0  0  0  0  0  0  0  0  0  0  0  0
   68.3854   25.7910   13.5793 C   0  0  0  0  0  0  0  0  0  0  0  0
   68.4072   26.7782   14.5612 C   0  0  0  0  0  0  0  0  0  0  0  0
   67.5011   27.8369   14.4934 C   0  0  0  0  0  0  0  0  0  0  0  0
   67.5589   28.7734   15.4930 O   0  0  0  0  0  0  0  0  0  0  0  0
   69.2853   24.7720   13.6848 O   0  0  0  0  0  0  0  0  0  0  0  0
   65.7013   26.9060   11.4100 O   0  0  0  0  0  0  0  0  0  0  0  0
   64.8810   31.1162   14.4486 O   0  0  0  0  0  0  0  0  0  0  0  0
   69.1566   24.1615   12.9388 H   0  0  0  0  0  0  0  0  0  0  0  0
   65.1331   27.7078   11.4846 H   0  0  0  0  0  0  0  0  0  0  0  0
   65.1541   31.7744   15.1093 H   0  0  0  0  0  0  0  0  0  0  0  0
   68.0232   30.8111   17.3179 C   0  0  0  0  0  0  0  0  0  0  0  0
   68.1546   31.6368   18.4391 C   0  0  0  0  0  0  0  0  0  0  0  0
   67.0627   32.3865   18.8558 C   0  0  0  0  0  0  0  0  0  0  0  0
   65.8582   32.3230   18.1590 C   0  0  0  0  0  0  0  0  0  0  0  0
   65.7175   31.5062   17.0446 C   0  0  0  0  0  0  0  0  0  0  0  0
   66.8026   30.7295   16.6215 C   0  0  0  0  0  0  0  0  0  0  0  0
   64.7915   33.0668   18.5760 O   0  0  0  0  0  0  0  0  0  0  0  0
   67.1214   33.2030   19.9502 O   0  0  0  0  0  0  0  0  0  0  0  0
   65.1202   33.5572   19.3561 H   0  0  0  0  0  0  0  0  0  0  0  0
   68.0136   33.1397   20.3332 H   0  0  0  0  0  0  0  0  0  0  0  0
 18 19  2  0  0  0
 19 20  1  0  0  0
 20 21  2  0  0  0
 21 22  1  0  0  0
 22 23  2  0  0  0
 18 23  1  0  0  0
 23  1  1  0  0  0
  1  2  2  0  0  0
  2  3  1  0  0  0
  3  4  2  0  0  0
  3  5  1  0  0  0
  5  6  2  0  0  0
  6  7  1  0  0  0
  7  8  2  0  0  0
  8  9  1  0  0  0
  9 10  2  0  0  0
  5 10  1  0  0  0
 10 11  1  0  0  0
  1 11  1  0  0  0
  8 12  1  0  0  0
  6 13  1  0  0  0
  2 14  1  0  0  0
 21 24  1  0  0  0
 20 25  1  0  0  0
 12 15  1  0  0  0
 13 16  1  0  0  0
 14 17  1  0  0  0
 24 26  1  0  0  0
 25 27  1  0  0  0
M  END
> <minimizedAffinity>
-7.34949

$$$$
Quercetin


 27 29  0  0  0  0  0  0  0  0999 V2000
   66.9049   28.7970   14.7908 C   0  0  0  0  0  0  0  0  0  0  0  0
   65.7810   29.5425   14.7959 C   0  0  0  0  0  0  0  0  0  0  0  0
   65.6777   30.6363   15.7993 C   0  0  0  0  0  0  0  0  0  0  0  0
   64.7058   31.3843   15.8773 O   0  0  0  0  0  0  0  0  0  0  0  0
   66.8044   30.8072   16.7237 C   0  0  0  0  0  0  0  0  0  0  0  0
   66.8067   31.8133   17.6977 C   0  0  0  0  0  0  0  0  0  0  0  0
   67.8875   31.9518   18.5649 C   0  0  0  0  0  0  0  0  0  0  0  0
   68.9628   31.0756   18.4515 C   0  0  0  0  0  0  0  0  0  0  0  0
   68.9725   30.0716   17.4866 C   0  0  0  0  0  0  0  0  0  0  0  0
   67.8886   29.9410   16.6179 C   0  0  0  0  0  0  0  0  0  0  0  0
   67.9569   28.9436   15.6797 O   0  0  0  0  0  0  0  0  0  0  0  0
   70.0432   31.1710   19.2779 O   0  0  0  0  0  0  0  0  0  0  0  0
   65.7767   32.7021   17.8544 O   0  0  0  0  0  0  0  0  0  0  0  0
   64.7118   29.3647   13.9353 O   0  0  0  0  0  0  0  0  0  0  0  0
   69.9016   31.9090   19.8952 H   0  0  0  0  0  0  0  0  0  0  0  0
   65.0840   32.4881   17.1868 H   0  0  0  0  0  0  0  0  0  0  0  0
   64.8228   28.5260   13.4571 H   0  0  0  0  0  0  0  0  0  0  0  0
   68.1283   26.7541   14.0287 C   0  0  0  0  0  0  0  0  0  0  0  0
   68.3741   25.7519   13.0847 C   0  0  0  0  0  0  0  0  0  0  0  0
   67.6129   25.7179   11.9240 C   0  0  0  0  0  0  0  0  0  0  0  0
   66.6125   26.6635   11.7104 C   0  0  0  0  0  0  0  0  0  0  0  0
   66.3607   27.6627   12.6415 C   0  0  0  0  0  0  0  0  0  0  0  0
   67.1310   27.7229   13.8089 C   0  0  0  0  0  0  0  0  0  0  0  0
   65.8680   26.6190   10.5665 O   0  0  0  0  0  0  0  0  0  0  0  0
   67.8109   24.7728   10.9568 O   0  0  0  0  0  0  0  0  0  0  0  0
   66.2115   25.8452   10.0762 H   0  0  0  0  0  0  0  0  0  0  0  0
   68.5381   24.1915   11.2396 H   0  0  0  0  0  0  0  0  0  0  0  0
 18 19  2  0  0  0
 19 20  1  0  0  0
 20 21  2  0  0  0
 21 22  1  0  0  0
 22 23  2  0  0  0
 18 23  1  0  0  0
 23  1  1  0  0  0
  1  2  2  0  0  0
  2  3  1  0  0  0
  3  4  2  0  0  0
  3  5  1  0  0  0
  5  6  2  0  0  0
  6  7  1  0  0  0
  7  8  2  0  0  0
  8  9  1  0  0  0
  9 10  2  0  0  0
  5 10  1  0  0  0
 10 11  1  0  0  0
  1 11  1  0  0  0
  8 12  1  0  0  0
  6 13  1  0  0  0
  2 14  1  0  0  0
 21 24  1  0  0  0
 20 25  1  0  0  0
 12 15  1  0  0  0
 13 16  1  0  0  0
 14 17  1  0  0  0
 24 26  1  0  0  0
 25 27  1  0  0  0
M  END
> <minimizedAffinity>
-7.14587

$$$$
Quercetin


 27 29  0  0  0  0  0  0  0  0999 V2000
   67.0750   28.9019   15.7409 C   0  0  0  0  0  0  0  0  0  0  0  0
   67.9945   28.0543   16.2461 C   0  0  0  0  0  0  0  0  0  0  0  0
   68.4166   26.9039   15.4021 C   0  0  0  0  0  0  0  0  0  0  0  0
   69.2594   26.0843   15.7597 O   0  0  0  0  0  0  0  0  0  0  0  0
   67.7816   26.7689   14.0861 C   0  0  0  0  0  0  0  0  0  0  0  0
   68.1174   25.7257   13.2144 C   0  0  0  0  0  0  0  0  0  0  0  0
   67.4973   25.6186   11.9721 C   0  0  0  0  0  0  0  0  0  0  0  0
   66.5384   26.5604   11.6108 C   0  0  0  0  0  0  0  0  0  0  0  0
   66.1966   27.6027   12.4687 C   0  0  0  0  0  0  0  0  0  0  0  0
   66.8247   27.7069   13.7100 C   0  0  0  0  0  0  0  0  0  0  0  0
   66.4586   28.7594   14.5088 O   0  0  0  0  0  0  0  0  0  0  0  0
   65.9035   26.4971   10.4058 O   0  0  0  0  0  0  0  0  0  0  0  0
   69.0523   24.7721   13.5175 O   0  0  0  0  0  0  0  0  0  0  0  0
   68.5758   28.1741   17.4963 O   0  0  0  0  0  0  0  0  0  0  0  0
   66.2382   25.7270    9.9151 H   0  0  0  0  0  0  0  0  0  0  0  0
   69.4032   24.9634   14.4184 H   0  0  0  0  0  0  0  0  0  0  0  0
   68.0973   28.8477   18.0079 H   0  0  0  0  0  0  0  0  0  0  0  0
   67.4882   30.7535   17.3692 C   0  0  0  0  0  0  0  0  0  0  0  0
   67.0567   31.8693   18.0938 C   0  0  0  0  0  0  0  0  0  0  0  0
   65.7606   32.3321   17.9103 C   0  0  0  0  0  0  0  0  0  0  0  0
   64.9080   31.6986   17.0091 C   0  0  0  0  0  0  0  0  0  0  0  0
   65.3268   30.5900   16.2850 C   0  0  0  0  0  0  0  0  0  0  0  0
   66.6243   30.0987   16.4711 C   0  0  0  0  0  0  0  0  0  0  0  0
   63.6361   32.1640   16.8345 O   0  0  0  0  0  0  0  0  0  0  0  0
   65.2735   33.4092   18.5961 O   0  0  0  0  0  0  0  0  0  0  0  0
   63.5704   32.9375   17.4298 H   0  0  0  0  0  0  0  0  0  0  0  0
   65.9731   33.7397   19.1861 H   0  0  0  0  0  0  0  0  0  0  0  0
 18 19  2  0  0  0
 19 20  1  0  0  0
 20 21  2  0  0  0
 21 22  1  0  0  0
 22 23  2  0  0  0
 18 23  1  0  0  0
 23  1  1  0  0  0
  1  2  2  0  0  0
  2  3  1  0  0  0
  3  4  2  0  0  0
  3  5  1  0  0  0
  5  6  2  0  0  0
  6  7  1  0  0  0
  7  8  2  0  0  0
  8  9  1  0  0  0
  9 10  2  0  0  0
  5 10  1  0  0  0
 10 11  1  0  0  0
  1 11  1  0  0  0
  8 12  1  0  0  0
  6 13  1  0  0  0
  2 14  1  0  0  0
 21 24  1  0  0  0
 20 25  1  0  0  0
 12 15  1  0  0  0
 13 16  1  0  0  0
 14 17  1  0  0  0
 24 26  1  0  0  0
 25 27  1  0  0  0
M  END
> <minimizedAffinity>
-7.14115

$$$$
Quercetin


 27 29  0  0  0  0  0  0  0  0999 V2000
   66.3583   30.6691   16.2190 C   0  0  0  0  0  0  0  0  0  0  0  0
   67.5164   30.9473   16.8517 C   0  0  0  0  0  0  0  0  0  0  0  0
   67.4639   31.8553   18.0293 C   0  0  0  0  0  0  0  0  0  0  0  0
   68.4570   32.1585   18.6864 O   0  0  0  0  0  0  0  0  0  0  0  0
   66.1516   32.3966   18.4008 C   0  0  0  0  0  0  0  0  0  0  0  0
   65.9962   33.2521   19.4985 C   0  0  0  0  0  0  0  0  0  0  0  0
   64.7398   33.7547   19.8277 C   0  0  0  0  0  0  0  0  0  0  0  0
   63.6427   33.3969   19.0498 C   0  0  0  0  0  0  0  0  0  0  0  0
   63.7844   32.5463   17.9563 C   0  0  0  0  0  0  0  0  0  0  0  0
   65.0450   32.0427   17.6345 C   0  0  0  0  0  0  0  0  0  0  0  0
   65.1242   31.2001   16.5558 O   0  0  0  0  0  0  0  0  0  0  0  0
   62.3930   33.8637   19.3320 O   0  0  0  0  0  0  0  0  0  0  0  0
   67.0395   33.6371   20.2977 O   0  0  0  0  0  0  0  0  0  0  0  0
   68.7551   30.4505   16.4853 O   0  0  0  0  0  0  0  0  0  0  0  0
   62.4428   34.4403   20.1136 H   0  0  0  0  0  0  0  0  0  0  0  0
   67.8611   33.2175   19.9510 H   0  0  0  0  0  0  0  0  0  0  0  0
   68.6832   30.0228   15.6157 H   0  0  0  0  0  0  0  0  0  0  0  0
   67.1042   28.5966   15.0363 C   0  0  0  0  0  0  0  0  0  0  0  0
   67.0723   27.7322   13.9372 C   0  0  0  0  0  0  0  0  0  0  0  0
   66.2172   28.0163   12.8808 C   0  0  0  0  0  0  0  0  0  0  0  0
   65.3965   29.1411   12.9226 C   0  0  0  0  0  0  0  0  0  0  0  0
   65.4208   30.0057   14.0093 C   0  0  0  0  0  0  0  0  0  0  0  0
   66.2903   29.7444   15.0748 C   0  0  0  0  0  0  0  0  0  0  0  0
   64.5573   29.4095   11.8793 O   0  0  0  0  0  0  0  0  0  0  0  0
   66.1471   27.2194   11.7728 O   0  0  0  0  0  0  0  0  0  0  0  0
   64.7043   28.6774   11.2472 H   0  0  0  0  0  0  0  0  0  0  0  0
   66.7750   26.4844   11.8829 H   0  0  0  0  0  0  0  0  0  0  0  0
 18 19  2  0  0  0
 19 20  1  0  0  0
 20 21  2  0  0  0
 21 22  1  0  0  0
 22 23  2  0  0  0
 18 23  1  0  0  0
 23  1  1  0  0  0
  1  2  2  0  0  0
  2  3  1  0  0  0
  3  4  2  0  0  0
  3  5  1  0  0  0
  5  6  2  0  0  0
  6  7  1  0  0  0
  7  8  2  0  0  0
  8  9  1  0  0  0
  9 10  2  0  0  0
  5 10  1  0  0  0
 10 11  1  0  0  0
  1 11  1  0  0  0
  8 12  1  0  0  0
  6 13  1  0  0  0
  2 14  1  0  0  0
 21 24  1  0  0  0
 20 25  1  0  0  0
 12 15  1  0  0  0
 13 16  1  0  0  0
 14 17  1  0  0  0
 24 26  1  0  0  0
 25 27  1  0  0  0
M  END
> <minimizedAffinity>
-6.79062

$$$$
Quercetin


 27 29  0  0  0  0  0  0  0  0999 V2000
   67.4250   28.7921   15.3364 C   0  0  0  0  0  0  0  0  0  0  0  0
   68.4816   29.0158   16.1442 C   0  0  0  0  0  0  0  0  0  0  0  0
   68.3541   30.0806   17.1756 C   0  0  0  0  0  0  0  0  0  0  0  0
   69.2494   30.3522   17.9723 O   0  0  0  0  0  0  0  0  0  0  0  0
   67.0888   30.8223   17.2211 C   0  0  0  0  0  0  0  0  0  0  0  0
   66.8678   31.8366   18.1610 C   0  0  0  0  0  0  0  0  0  0  0  0
   65.6588   32.5275   18.1806 C   0  0  0  0  0  0  0  0  0  0  0  0
   64.6756   32.1977   17.2524 C   0  0  0  0  0  0  0  0  0  0  0  0
   64.8833   31.1905   16.3134 C   0  0  0  0  0  0  0  0  0  0  0  0
   66.0951   30.4991   16.3019 C   0  0  0  0  0  0  0  0  0  0  0  0
   66.2405   29.5094   15.3644 O   0  0  0  0  0  0  0  0  0  0  0  0
   63.4763   32.8460   17.2317 O   0  0  0  0  0  0  0  0  0  0  0  0
   67.7986   32.2026   19.0963 O   0  0  0  0  0  0  0  0  0  0  0  0
   69.6808   28.3275   16.0842 O   0  0  0  0  0  0  0  0  0  0  0  0
   63.4703   33.5170   17.9357 H   0  0  0  0  0  0  0  0  0  0  0  0
   68.5993   31.6428   18.9661 H   0  0  0  0  0  0  0  0  0  0  0  0
   69.7021   27.7931   15.2729 H   0  0  0  0  0  0  0  0  0  0  0  0
   68.2930   26.6271   14.4365 C   0  0  0  0  0  0  0  0  0  0  0  0
   68.3271   25.6322   13.4540 C   0  0  0  0  0  0  0  0  0  0  0  0
   67.4854   25.7410   12.3551 C   0  0  0  0  0  0  0  0  0  0  0  0
   66.6133   26.8212   12.2408 C   0  0  0  0  0  0  0  0  0  0  0  0
   66.5720   27.8144   13.2107 C   0  0  0  0  0  0  0  0  0  0  0  0
   67.4268   27.7301   14.3161 C   0  0  0  0  0  0  0  0  0  0  0  0
   65.7879   26.9168   11.1570 O   0  0  0  0  0  0  0  0  0  0  0  0
   67.4784   24.8101   11.3546 O   0  0  0  0  0  0  0  0  0  0  0  0
   65.9834   26.1198   10.6245 H   0  0  0  0  0  0  0  0  0  0  0  0
   68.1365   24.1257   11.5673 H   0  0  0  0  0  0  0  0  0  0  0  0
 18 19  2  0  0  0
 19 20  1  0  0  0
 20 21  2  0  0  0
 21 22  1  0  0  0
 22 23  2  0  0  0
 18 23  1  0  0  0
 23  1  1  0  0  0
  1  2  2  0  0  0
  2  3  1  0  0  0
  3  4  2  0  0  0
  3  5  1  0  0  0
  5  6  2  0  0  0
  6  7  1  0  0  0
  7  8  2  0  0  0
  8  9  1  0  0  0
  9 10  2  0  0  0
  5 10  1  0  0  0
 10 11  1  0  0  0
  1 11  1  0  0  0
  8 12  1  0  0  0
  6 13  1  0  0  0
  2 14  1  0  0  0
 21 24  1  0  0  0
 20 25  1  0  0  0
 12 15  1  0  0  0
 13 16  1  0  0  0
 14 17  1  0  0  0
 24 26  1  0  0  0
 25 27  1  0  0  0
M  END
> <minimizedAffinity>
-6.68570

$$$$
