Quercetin


 27 29  0  0  0  0  0  0  0  0999 V2000
   70.5928   44.5153   -8.4346 C   0  0  0  0  0  0  0  0  0  0  0  0
   71.6438   43.6702   -8.4268 C   0  0  0  0  0  0  0  0  0  0  0  0
   72.0909   43.1058   -9.7289 C   0  0  0  0  0  0  0  0  0  0  0  0
   73.0476   42.3419   -9.8349 O   0  0  0  0  0  0  0  0  0  0  0  0
   71.3368   43.4991  -10.9247 C   0  0  0  0  0  0  0  0  0  0  0  0
   71.6844   43.0292  -12.1973 C   0  0  0  0  0  0  0  0  0  0  0  0
   70.9500   43.4154  -13.3157 C   0  0  0  0  0  0  0  0  0  0  0  0
   69.8655   44.2719  -13.1505 C   0  0  0  0  0  0  0  0  0  0  0  0
   69.5105   44.7464  -11.8903 C   0  0  0  0  0  0  0  0  0  0  0  0
   70.2531   44.3593  -10.7745 C   0  0  0  0  0  0  0  0  0  0  0  0
   69.8668   44.8663   -9.5607 O   0  0  0  0  0  0  0  0  0  0  0  0
   69.1159   44.6774  -14.2149 O   0  0  0  0  0  0  0  0  0  0  0  0
   72.7403   42.1856  -12.4182 O   0  0  0  0  0  0  0  0  0  0  0  0
   72.3394   43.2860   -7.2937 O   0  0  0  0  0  0  0  0  0  0  0  0
   69.4746   44.2729  -15.0233 H   0  0  0  0  0  0  0  0  0  0  0  0
   73.1633   41.9914  -11.5495 H   0  0  0  0  0  0  0  0  0  0  0  0
   71.8508   43.5759   -6.5053 H   0  0  0  0  0  0  0  0  0  0  0  0
   70.8124   46.2395   -6.6375 C   0  0  0  0  0  0  0  0  0  0  0  0
   70.3717   46.8421   -5.4548 C   0  0  0  0  0  0  0  0  0  0  0  0
   69.2118   46.3745   -4.8517 C   0  0  0  0  0  0  0  0  0  0  0  0
   68.4939   45.3270   -5.4243 C   0  0  0  0  0  0  0  0  0  0  0  0
   68.9232   44.7218   -6.5983 C   0  0  0  0  0  0  0  0  0  0  0  0
   70.1005   45.1685   -7.2099 C   0  0  0  0  0  0  0  0  0  0  0  0
   67.3529   44.8768   -4.8240 O   0  0  0  0  0  0  0  0  0  0  0  0
   68.7343   46.9112   -3.6891 O   0  0  0  0  0  0  0  0  0  0  0  0
   67.2468   45.4444   -4.0343 H   0  0  0  0  0  0  0  0  0  0  0  0
   69.3371   47.6215   -3.4084 H   0  0  0  0  0  0  0  0  0  0  0  0
 18 19  2  0  0  0
 19 20  1  0  0  0
 20 21  2  0  0  0
 21 22  1  0  0  0
 22 23  2  0  0  0
 18 23  1  0  0  0
 23  1  1  0  0  0
  1  2  2  0  0  0
  2  3  1  0  0  0
  3  4  2  0  0  0
  3  5  1  0  0  0
  5  6  2  0  0  0
  6  7  1  0  0  0
  7  8  2  0  0  0
  8  9  1  0  0  0
  9 10  2  0  0  0
  5 10  1  0  0  0
 10 11  1  0  0  0
  1 11  1  0  0  0
  8 12  1  0  0  0
  6 13  1  0  0  0
  2 14  1  0  0  0
 21 24  1  0  0  0
 20 25  1  0  0  0
 12 15  1  0  0  0
 13 16  1  0  0  0
 14 17  1  0  0  0
 24 26  1  0  0  0
 25 27  1  0  0  0
M  END
> <minimizedAffinity>
-6.91364

$$$$
Quercetin


 27 29  0  0  0  0  0  0  0  0999 V2000
   70.0907   44.1055   -8.2096 C   0  0  0  0  0  0  0  0  0  0  0  0
   69.0536   43.4282   -7.6762 C   0  0  0  0  0  0  0  0  0  0  0  0
   68.3882   44.0076   -6.4781 C   0  0  0  0  0  0  0  0  0  0  0  0
   67.4248   43.4809   -5.9263 O   0  0  0  0  0  0  0  0  0  0  0  0
   68.9278   45.2680   -5.9550 C   0  0  0  0  0  0  0  0  0  0  0  0
   68.3658   45.8976   -4.8376 C   0  0  0  0  0  0  0  0  0  0  0  0
   68.8992   47.0918   -4.3594 C   0  0  0  0  0  0  0  0  0  0  0  0
   69.9989   47.6486   -5.0056 C   0  0  0  0  0  0  0  0  0  0  0  0
   70.5661   47.0324   -6.1181 C   0  0  0  0  0  0  0  0  0  0  0  0
   70.0242   45.8385   -6.5949 C   0  0  0  0  0  0  0  0  0  0  0  0
   70.6143   45.2823   -7.7004 O   0  0  0  0  0  0  0  0  0  0  0  0
   70.5566   48.8157   -4.5743 O   0  0  0  0  0  0  0  0  0  0  0  0
   67.2847   45.3953   -4.1634 O   0  0  0  0  0  0  0  0  0  0  0  0
   68.5609   42.2291   -8.1607 O   0  0  0  0  0  0  0  0  0  0  0  0
   70.0634   49.1308   -3.7976 H   0  0  0  0  0  0  0  0  0  0  0  0
   67.0161   44.5538   -4.6005 H   0  0  0  0  0  0  0  0  0  0  0  0
   69.1783   41.8739   -8.8218 H   0  0  0  0  0  0  0  0  0  0  0  0
   72.0024   42.9428   -9.3251 C   0  0  0  0  0  0  0  0  0  0  0  0
   72.6892   42.5354  -10.4733 C   0  0  0  0  0  0  0  0  0  0  0  0
   72.1519   42.8282  -11.7197 C   0  0  0  0  0  0  0  0  0  0  0  0
   70.9409   43.5089  -11.8217 C   0  0  0  0  0  0  0  0  0  0  0  0
   70.2513   43.9180  -10.6878 C   0  0  0  0  0  0  0  0  0  0  0  0
   70.7876   43.6472   -9.4234 C   0  0  0  0  0  0  0  0  0  0  0  0
   70.4203   43.7893  -13.0527 O   0  0  0  0  0  0  0  0  0  0  0  0
   72.7788   42.4692  -12.8798 O   0  0  0  0  0  0  0  0  0  0  0  0
   71.0606   43.4077  -13.6863 H   0  0  0  0  0  0  0  0  0  0  0  0
   73.6069   42.0116  -12.6526 H   0  0  0  0  0  0  0  0  0  0  0  0
 18 19  2  0  0  0
 19 20  1  0  0  0
 20 21  2  0  0  0
 21 22  1  0  0  0
 22 23  2  0  0  0
 18 23  1  0  0  0
 23  1  1  0  0  0
  1  2  2  0  0  0
  2  3  1  0  0  0
  3  4  2  0  0  0
  3  5  1  0  0  0
  5  6  2  0  0  0
  6  7  1  0  0  0
  7  8  2  0  0  0
  8  9  1  0  0  0
  9 10  2  0  0  0
  5 10  1  0  0  0
 10 11  1  0  0  0
  1 11  1  0  0  0
  8 12  1  0  0  0
  6 13  1  0  0  0
  2 14  1  0  0  0
 21 24  1  0  0  0
 20 25  1  0  0  0
 12 15  1  0  0  0
 13 16  1  0  0  0
 14 17  1  0  0  0
 24 26  1  0  0  0
 25 27  1  0  0  0
M  END
> <minimizedAffinity>
-6.84139

$$$$
Quercetin


 27 29  0  0  0  0  0  0  0  0999 V2000
   68.4377   45.6369   -7.3376 C   0  0  0  0  0  0  0  0  0  0  0  0
   67.7832   45.5588   -8.5143 C   0  0  0  0  0  0  0  0  0  0  0  0
   68.4411   44.8225   -9.6274 C   0  0  0  0  0  0  0  0  0  0  0  0
   67.9239   44.6775  -10.7327 O   0  0  0  0  0  0  0  0  0  0  0  0
   69.7671   44.2523   -9.3631 C   0  0  0  0  0  0  0  0  0  0  0  0
   70.4640   43.5342  -10.3427 C   0  0  0  0  0  0  0  0  0  0  0  0
   71.7228   43.0061  -10.0669 C   0  0  0  0  0  0  0  0  0  0  0  0
   72.2785   43.2041   -8.8064 C   0  0  0  0  0  0  0  0  0  0  0  0
   71.5949   43.9157   -7.8239 C   0  0  0  0  0  0  0  0  0  0  0  0
   70.3323   44.4384   -8.1050 C   0  0  0  0  0  0  0  0  0  0  0  0
   69.6997   45.1193   -7.0972 O   0  0  0  0  0  0  0  0  0  0  0  0
   73.5080   42.7070   -8.4894 O   0  0  0  0  0  0  0  0  0  0  0  0
   69.9661   43.3092  -11.5984 O   0  0  0  0  0  0  0  0  0  0  0  0
   66.5414   46.1158   -8.7653 O   0  0  0  0  0  0  0  0  0  0  0  0
   73.8651   42.2371   -9.2624 H   0  0  0  0  0  0  0  0  0  0  0  0
   69.0808   43.7383  -11.6576 H   0  0  0  0  0  0  0  0  0  0  0  0
   66.3026   46.7074   -8.0323 H   0  0  0  0  0  0  0  0  0  0  0  0
   67.4643   47.6491   -6.2177 C   0  0  0  0  0  0  0  0  0  0  0  0
   66.9446   48.2954   -5.0915 C   0  0  0  0  0  0  0  0  0  0  0  0
   66.8110   47.5830   -3.9073 C   0  0  0  0  0  0  0  0  0  0  0  0
   67.1802   46.2411   -3.8476 C   0  0  0  0  0  0  0  0  0  0  0  0
   67.6974   45.5903   -4.9602 C   0  0  0  0  0  0  0  0  0  0  0  0
   67.8562   46.2984   -6.1573 C   0  0  0  0  0  0  0  0  0  0  0  0
   67.0420   45.5492   -2.6784 O   0  0  0  0  0  0  0  0  0  0  0  0
   66.3220   48.1586   -2.7683 O   0  0  0  0  0  0  0  0  0  0  0  0
   66.6609   46.1955   -2.0506 H   0  0  0  0  0  0  0  0  0  0  0  0
   66.1148   49.0899   -2.9593 H   0  0  0  0  0  0  0  0  0  0  0  0
 18 19  2  0  0  0
 19 20  1  0  0  0
 20 21  2  0  0  0
 21 22  1  0  0  0
 22 23  2  0  0  0
 18 23  1  0  0  0
 23  1  1  0  0  0
  1  2  2  0  0  0
  2  3  1  0  0  0
  3  4  2  0  0  0
  3  5  1  0  0  0
  5  6  2  0  0  0
  6  7  1  0  0  0
  7  8  2  0  0  0
  8  9  1  0  0  0
  9 10  2  0  0  0
  5 10  1  0  0  0
 10 11  1  0  0  0
  1 11  1  0  0  0
  8 12  1  0  0  0
  6 13  1  0  0  0
  2 14  1  0  0  0
 21 24  1  0  0  0
 20 25  1  0  0  0
 12 15  1  0  0  0
 13 16  1  0  0  0
 14 17  1  0  0  0
 24 26  1  0  0  0
 25 27  1  0  0  0
M  END
> <minimizedAffinity>
-6.79178

$$$$
Quercetin


 27 29  0  0  0  0  0  0  0  0999 V2000
   67.7082   44.5152   -7.5217 C   0  0  0  0  0  0  0  0  0  0  0  0
   67.4364   44.4329   -6.2033 C   0  0  0  0  0  0  0  0  0  0  0  0
   68.1031   45.4043   -5.2946 C   0  0  0  0  0  0  0  0  0  0  0  0
   67.9113   45.4269   -4.0810 O   0  0  0  0  0  0  0  0  0  0  0  0
   69.0253   46.3691   -5.9044 C   0  0  0  0  0  0  0  0  0  0  0  0
   69.6945   47.3294   -5.1357 C   0  0  0  0  0  0  0  0  0  0  0  0
   70.5670   48.2316   -5.7390 C   0  0  0  0  0  0  0  0  0  0  0  0
   70.7662   48.1637   -7.1147 C   0  0  0  0  0  0  0  0  0  0  0  0
   70.1059   47.2139   -7.8899 C   0  0  0  0  0  0  0  0  0  0  0  0
   69.2297   46.3158   -7.2800 C   0  0  0  0  0  0  0  0  0  0  0  0
   68.5975   45.4105   -8.0928 O   0  0  0  0  0  0  0  0  0  0  0  0
   71.6109   49.0248   -7.7505 O   0  0  0  0  0  0  0  0  0  0  0  0
   69.5368   47.4417   -3.7799 O   0  0  0  0  0  0  0  0  0  0  0  0
   66.5814   43.5078   -5.6299 O   0  0  0  0  0  0  0  0  0  0  0  0
   71.9983   49.6271   -7.0926 H   0  0  0  0  0  0  0  0  0  0  0  0
   68.9034   46.7457   -3.4872 H   0  0  0  0  0  0  0  0  0  0  0  0
   66.3523   42.8325   -6.2900 H   0  0  0  0  0  0  0  0  0  0  0  0
   66.1753   44.1667   -9.4657 C   0  0  0  0  0  0  0  0  0  0  0  0
   65.5328   43.3341  -10.3877 C   0  0  0  0  0  0  0  0  0  0  0  0
   65.7906   41.9701  -10.3582 C   0  0  0  0  0  0  0  0  0  0  0  0
   66.6847   41.4428   -9.4292 C   0  0  0  0  0  0  0  0  0  0  0  0
   67.3277   42.2610   -8.5094 C   0  0  0  0  0  0  0  0  0  0  0  0
   67.0655   43.6361   -8.5131 C   0  0  0  0  0  0  0  0  0  0  0  0
   66.9330   40.1001   -9.4109 O   0  0  0  0  0  0  0  0  0  0  0  0
   65.1866   41.1011  -11.2229 O   0  0  0  0  0  0  0  0  0  0  0  0
   66.3862   39.7362  -10.1359 H   0  0  0  0  0  0  0  0  0  0  0  0
   64.5911   41.6080  -11.8019 H   0  0  0  0  0  0  0  0  0  0  0  0
 18 19  2  0  0  0
 19 20  1  0  0  0
 20 21  2  0  0  0
 21 22  1  0  0  0
 22 23  2  0  0  0
 18 23  1  0  0  0
 23  1  1  0  0  0
  1  2  2  0  0  0
  2  3  1  0  0  0
  3  4  2  0  0  0
  3  5  1  0  0  0
  5  6  2  0  0  0
  6  7  1  0  0  0
  7  8  2  0  0  0
  8  9  1  0  0  0
  9 10  2  0  0  0
  5 10  1  0  0  0
 10 11  1  0  0  0
  1 11  1  0  0  0
  8 12  1  0  0  0
  6 13  1  0  0  0
  2 14  1  0  0  0
 21 24  1  0  0  0
 20 25  1  0  0  0
 12 15  1  0  0  0
 13 16  1  0  0  0
 14 17  1  0  0  0
 24 26  1  0  0  0
 25 27  1  0  0  0
M  END
> <minimizedAffinity>
-6.63066

$$$$
Quercetin


 27 29  0  0  0  0  0  0  0  0999 V2000
   66.6840   44.3755   -7.2167 C   0  0  0  0  0  0  0  0  0  0  0  0
   66.2328   43.1477   -6.8882 C   0  0  0  0  0  0  0  0  0  0  0  0
   65.0606   42.6159   -7.6345 C   0  0  0  0  0  0  0  0  0  0  0  0
   64.5824   41.5032   -7.4263 O   0  0  0  0  0  0  0  0  0  0  0  0
   64.4707   43.4815   -8.6622 C   0  0  0  0  0  0  0  0  0  0  0  0
   63.3714   43.0685   -9.4249 C   0  0  0  0  0  0  0  0  0  0  0  0
   62.8285   43.9110  -10.3919 C   0  0  0  0  0  0  0  0  0  0  0  0
   63.3919   45.1685  -10.5874 C   0  0  0  0  0  0  0  0  0  0  0  0
   64.4857   45.5901   -9.8357 C   0  0  0  0  0  0  0  0  0  0  0  0
   65.0276   44.7397   -8.8716 C   0  0  0  0  0  0  0  0  0  0  0  0
   66.1112   45.2012   -8.1698 O   0  0  0  0  0  0  0  0  0  0  0  0
   62.8952   46.0287  -11.5215 O   0  0  0  0  0  0  0  0  0  0  0  0
   62.7775   41.8437   -9.2752 O   0  0  0  0  0  0  0  0  0  0  0  0
   66.7797   42.3429   -5.9041 O   0  0  0  0  0  0  0  0  0  0  0  0
   62.1407   45.6065  -11.9668 H   0  0  0  0  0  0  0  0  0  0  0  0
   63.2534   41.3584   -8.5616 H   0  0  0  0  0  0  0  0  0  0  0  0
   67.4126   42.8630   -5.3813 H   0  0  0  0  0  0  0  0  0  0  0  0
   69.1533   44.7491   -7.0998 C   0  0  0  0  0  0  0  0  0  0  0  0
   70.2850   45.2853   -6.4770 C   0  0  0  0  0  0  0  0  0  0  0  0
   70.1235   46.0555   -5.3331 C   0  0  0  0  0  0  0  0  0  0  0  0
   68.8507   46.2976   -4.8215 C   0  0  0  0  0  0  0  0  0  0  0  0
   67.7207   45.7696   -5.4324 C   0  0  0  0  0  0  0  0  0  0  0  0
   67.8665   44.9755   -6.5760 C   0  0  0  0  0  0  0  0  0  0  0  0
   68.7033   47.0589   -3.6974 O   0  0  0  0  0  0  0  0  0  0  0  0
   71.1886   46.5978   -4.6702 O   0  0  0  0  0  0  0  0  0  0  0  0
   69.6137   47.3210   -3.4535 H   0  0  0  0  0  0  0  0  0  0  0  0
   72.0033   46.3410   -5.1359 H   0  0  0  0  0  0  0  0  0  0  0  0
 18 19  2  0  0  0
 19 20  1  0  0  0
 20 21  2  0  0  0
 21 22  1  0  0  0
 22 23  2  0  0  0
 18 23  1  0  0  0
 23  1  1  0  0  0
  1  2  2  0  0  0
  2  3  1  0  0  0
  3  4  2  0  0  0
  3  5  1  0  0  0
  5  6  2  0  0  0
  6  7  1  0  0  0
  7  8  2  0  0  0
  8  9  1  0  0  0
  9 10  2  0  0  0
  5 10  1  0  0  0
 10 11  1  0  0  0
  1 11  1  0  0  0
  8 12  1  0  0  0
  6 13  1  0  0  0
  2 14  1  0  0  0
 21 24  1  0  0  0
 20 25  1  0  0  0
 12 15  1  0  0  0
 13 16  1  0  0  0
 14 17  1  0  0  0
 24 26  1  0  0  0
 25 27  1  0  0  0
M  END
> <minimizedAffinity>
-6.45580

$$$$
