Quercetin


 27 29  0  0  0  0  0  0  0  0999 V2000
   74.7159   35.8154   -1.0653 C   0  0  0  0  0  0  0  0  0  0  0  0
   74.3167   36.9780   -1.6202 C   0  0  0  0  0  0  0  0  0  0  0  0
   74.2235   38.1727   -0.7382 C   0  0  0  0  0  0  0  0  0  0  0  0
   73.8879   39.2822   -1.1463 O   0  0  0  0  0  0  0  0  0  0  0  0
   74.5559   37.9878    0.6790 C   0  0  0  0  0  0  0  0  0  0  0  0
   74.5078   39.0522    1.5876 C   0  0  0  0  0  0  0  0  0  0  0  0
   74.8250   38.8489    2.9283 C   0  0  0  0  0  0  0  0  0  0  0  0
   75.1878   37.5738    3.3521 C   0  0  0  0  0  0  0  0  0  0  0  0
   75.2401   36.5076    2.4579 C   0  0  0  0  0  0  0  0  0  0  0  0
   74.9254   36.7189    1.1153 C   0  0  0  0  0  0  0  0  0  0  0  0
   75.0056   35.6367    0.2773 O   0  0  0  0  0  0  0  0  0  0  0  0
   75.5064   37.3253    4.6544 O   0  0  0  0  0  0  0  0  0  0  0  0
   74.1578   40.3260    1.2265 O   0  0  0  0  0  0  0  0  0  0  0  0
   73.9844   37.1433   -2.9535 O   0  0  0  0  0  0  0  0  0  0  0  0
   75.4282   38.1525    5.1598 H   0  0  0  0  0  0  0  0  0  0  0  0
   73.9554   40.3255    0.2619 H   0  0  0  0  0  0  0  0  0  0  0  0
   73.9160   36.2709   -3.3761 H   0  0  0  0  0  0  0  0  0  0  0  0
   74.4893   34.5433   -3.2056 C   0  0  0  0  0  0  0  0  0  0  0  0
   74.6174   33.3690   -3.9544 C   0  0  0  0  0  0  0  0  0  0  0  0
   75.1549   32.2400   -3.3509 C   0  0  0  0  0  0  0  0  0  0  0  0
   75.5695   32.2824   -2.0217 C   0  0  0  0  0  0  0  0  0  0  0  0
   75.4464   33.4434   -1.2696 C   0  0  0  0  0  0  0  0  0  0  0  0
   74.8896   34.5857   -1.8567 C   0  0  0  0  0  0  0  0  0  0  0  0
   76.0994   31.1668   -1.4390 O   0  0  0  0  0  0  0  0  0  0  0  0
   75.2957   31.0584   -4.0231 O   0  0  0  0  0  0  0  0  0  0  0  0
   76.0935   30.4904   -2.1457 H   0  0  0  0  0  0  0  0  0  0  0  0
   74.9615   31.1786   -4.9289 H   0  0  0  0  0  0  0  0  0  0  0  0
 18 19  2  0  0  0
 19 20  1  0  0  0
 20 21  2  0  0  0
 21 22  1  0  0  0
 22 23  2  0  0  0
 18 23  1  0  0  0
 23  1  1  0  0  0
  1  2  2  0  0  0
  2  3  1  0  0  0
  3  4  2  0  0  0
  3  5  1  0  0  0
  5  6  2  0  0  0
  6  7  1  0  0  0
  7  8  2  0  0  0
  8  9  1  0  0  0
  9 10  2  0  0  0
  5 10  1  0  0  0
 10 11  1  0  0  0
  1 11  1  0  0  0
  8 12  1  0  0  0
  6 13  1  0  0  0
  2 14  1  0  0  0
 21 24  1  0  0  0
 20 25  1  0  0  0
 12 15  1  0  0  0
 13 16  1  0  0  0
 14 17  1  0  0  0
 24 26  1  0  0  0
 25 27  1  0  0  0
M  END
> <minimizedAffinity>
-10.46516

$$$$
Quercetin


 27 29  0  0  0  0  0  0  0  0999 V2000
   74.7406   35.7047   -1.3838 C   0  0  0  0  0  0  0  0  0  0  0  0
   74.3399   36.8131   -2.0395 C   0  0  0  0  0  0  0  0  0  0  0  0
   74.1700   38.0633   -1.2509 C   0  0  0  0  0  0  0  0  0  0  0  0
   73.8266   39.1309   -1.7534 O   0  0  0  0  0  0  0  0  0  0  0  0
   74.4338   37.9882    0.1906 C   0  0  0  0  0  0  0  0  0  0  0  0
   74.3108   39.1118    1.0173 C   0  0  0  0  0  0  0  0  0  0  0  0
   74.5640   39.0125    2.3831 C   0  0  0  0  0  0  0  0  0  0  0  0
   74.9380   37.7818    2.9144 C   0  0  0  0  0  0  0  0  0  0  0  0
   75.0644   36.6576    2.1025 C   0  0  0  0  0  0  0  0  0  0  0  0
   74.8137   36.7646    0.7343 C   0  0  0  0  0  0  0  0  0  0  0  0
   74.9656   35.6293   -0.0192 O   0  0  0  0  0  0  0  0  0  0  0  0
   75.1957   37.6348    4.2453 O   0  0  0  0  0  0  0  0  0  0  0  0
   73.9464   40.3460    0.5491 O   0  0  0  0  0  0  0  0  0  0  0  0
   74.0725   36.8744   -3.3960 O   0  0  0  0  0  0  0  0  0  0  0  0
   75.0697   38.4927    4.6858 H   0  0  0  0  0  0  0  0  0  0  0  0
   73.7939   40.2718   -0.4218 H   0  0  0  0  0  0  0  0  0  0  0  0
   74.0490   35.9728   -3.7580 H   0  0  0  0  0  0  0  0  0  0  0  0
   75.9489   33.5252   -1.5846 C   0  0  0  0  0  0  0  0  0  0  0  0
   76.2153   32.3272   -2.2554 C   0  0  0  0  0  0  0  0  0  0  0  0
   75.5102   32.0326   -3.4146 C   0  0  0  0  0  0  0  0  0  0  0  0
   74.5446   32.9146   -3.8944 C   0  0  0  0  0  0  0  0  0  0  0  0
   74.2728   34.1068   -3.2358 C   0  0  0  0  0  0  0  0  0  0  0  0
   74.9873   34.4283   -2.0757 C   0  0  0  0  0  0  0  0  0  0  0  0
   73.8551   32.6136   -5.0340 O   0  0  0  0  0  0  0  0  0  0  0  0
   75.7312   30.8854   -4.1236 O   0  0  0  0  0  0  0  0  0  0  0  0
   74.2026   31.7424   -5.3121 H   0  0  0  0  0  0  0  0  0  0  0  0
   76.4295   30.3771   -3.6756 H   0  0  0  0  0  0  0  0  0  0  0  0
 18 19  2  0  0  0
 19 20  1  0  0  0
 20 21  2  0  0  0
 21 22  1  0  0  0
 22 23  2  0  0  0
 18 23  1  0  0  0
 23  1  1  0  0  0
  1  2  2  0  0  0
  2  3  1  0  0  0
  3  4  2  0  0  0
  3  5  1  0  0  0
  5  6  2  0  0  0
  6  7  1  0  0  0
  7  8  2  0  0  0
  8  9  1  0  0  0
  9 10  2  0  0  0
  5 10  1  0  0  0
 10 11  1  0  0  0
  1 11  1  0  0  0
  8 12  1  0  0  0
  6 13  1  0  0  0
  2 14  1  0  0  0
 21 24  1  0  0  0
 20 25  1  0  0  0
 12 15  1  0  0  0
 13 16  1  0  0  0
 14 17  1  0  0  0
 24 26  1  0  0  0
 25 27  1  0  0  0
M  END
> <minimizedAffinity>
-10.43180

$$$$
Quercetin


 27 29  0  0  0  0  0  0  0  0999 V2000
   75.2621   34.3370    1.2930 C   0  0  0  0  0  0  0  0  0  0  0  0
   75.0152   35.5789    0.8284 C   0  0  0  0  0  0  0  0  0  0  0  0
   74.8822   35.7564   -0.6428 C   0  0  0  0  0  0  0  0  0  0  0  0
   74.6401   36.8408   -1.1677 O   0  0  0  0  0  0  0  0  0  0  0  0
   75.0507   34.5633   -1.4803 C   0  0  0  0  0  0  0  0  0  0  0  0
   74.9354   34.6248   -2.8745 C   0  0  0  0  0  0  0  0  0  0  0  0
   75.1032   33.4780   -3.6465 C   0  0  0  0  0  0  0  0  0  0  0  0
   75.3892   32.2719   -3.0136 C   0  0  0  0  0  0  0  0  0  0  0  0
   75.5056   32.1979   -1.6280 C   0  0  0  0  0  0  0  0  0  0  0  0
   75.3320   33.3496   -0.8599 C   0  0  0  0  0  0  0  0  0  0  0  0
   75.4453   33.2164    0.4999 O   0  0  0  0  0  0  0  0  0  0  0  0
   75.5627   31.1227   -3.7266 O   0  0  0  0  0  0  0  0  0  0  0  0
   74.6558   35.7831   -3.5495 O   0  0  0  0  0  0  0  0  0  0  0  0
   74.8772   36.7051    1.6209 O   0  0  0  0  0  0  0  0  0  0  0  0
   75.4537   31.3209   -4.6725 H   0  0  0  0  0  0  0  0  0  0  0  0
   74.5685   36.5087   -2.8883 H   0  0  0  0  0  0  0  0  0  0  0  0
   75.1556   36.4938    2.5276 H   0  0  0  0  0  0  0  0  0  0  0  0
   76.4588   34.5092    3.4813 C   0  0  0  0  0  0  0  0  0  0  0  0
   76.5805   34.2033    4.8406 C   0  0  0  0  0  0  0  0  0  0  0  0
   75.5971   33.4351    5.4493 C   0  0  0  0  0  0  0  0  0  0  0  0
   74.5009   32.9858    4.7165 C   0  0  0  0  0  0  0  0  0  0  0  0
   74.3709   33.2840    3.3664 C   0  0  0  0  0  0  0  0  0  0  0  0
   75.3624   34.0419    2.7323 C   0  0  0  0  0  0  0  0  0  0  0  0
   73.5381   32.2331    5.3260 O   0  0  0  0  0  0  0  0  0  0  0  0
   75.6626   33.0908    6.7703 O   0  0  0  0  0  0  0  0  0  0  0  0
   73.8320   32.1592    6.2561 H   0  0  0  0  0  0  0  0  0  0  0  0
   76.4778   33.4668    7.1456 H   0  0  0  0  0  0  0  0  0  0  0  0
 18 19  2  0  0  0
 19 20  1  0  0  0
 20 21  2  0  0  0
 21 22  1  0  0  0
 22 23  2  0  0  0
 18 23  1  0  0  0
 23  1  1  0  0  0
  1  2  2  0  0  0
  2  3  1  0  0  0
  3  4  2  0  0  0
  3  5  1  0  0  0
  5  6  2  0  0  0
  6  7  1  0  0  0
  7  8  2  0  0  0
  8  9  1  0  0  0
  9 10  2  0  0  0
  5 10  1  0  0  0
 10 11  1  0  0  0
  1 11  1  0  0  0
  8 12  1  0  0  0
  6 13  1  0  0  0
  2 14  1  0  0  0
 21 24  1  0  0  0
 20 25  1  0  0  0
 12 15  1  0  0  0
 13 16  1  0  0  0
 14 17  1  0  0  0
 24 26  1  0  0  0
 25 27  1  0  0  0
M  END
> <minimizedAffinity>
-9.96868

$$$$
Quercetin


 27 29  0  0  0  0  0  0  0  0999 V2000
   74.9767   35.6090   -0.1141 C   0  0  0  0  0  0  0  0  0  0  0  0
   74.6215   36.8170   -0.5973 C   0  0  0  0  0  0  0  0  0  0  0  0
   74.5310   37.9499    0.3630 C   0  0  0  0  0  0  0  0  0  0  0  0
   74.2337   39.0932    0.0243 O   0  0  0  0  0  0  0  0  0  0  0  0
   74.8174   37.6590    1.7725 C   0  0  0  0  0  0  0  0  0  0  0  0
   74.7679   38.6590    2.7515 C   0  0  0  0  0  0  0  0  0  0  0  0
   75.0409   38.3555    4.0829 C   0  0  0  0  0  0  0  0  0  0  0  0
   75.3609   37.0453    4.4266 C   0  0  0  0  0  0  0  0  0  0  0  0
   75.4140   36.0424    3.4619 C   0  0  0  0  0  0  0  0  0  0  0  0
   75.1438   36.3539    2.1292 C   0  0  0  0  0  0  0  0  0  0  0  0
   75.2228   35.3306    1.2202 O   0  0  0  0  0  0  0  0  0  0  0  0
   75.6353   36.6993    5.7166 O   0  0  0  0  0  0  0  0  0  0  0  0
   74.4589   39.9632    2.4706 O   0  0  0  0  0  0  0  0  0  0  0  0
   74.3324   37.0824   -1.9244 O   0  0  0  0  0  0  0  0  0  0  0  0
   75.5620   37.4913    6.2761 H   0  0  0  0  0  0  0  0  0  0  0  0
   74.2848   40.0346    1.5032 H   0  0  0  0  0  0  0  0  0  0  0  0
   74.2557   36.2433   -2.4086 H   0  0  0  0  0  0  0  0  0  0  0  0
   75.8321   33.2953   -0.5212 C   0  0  0  0  0  0  0  0  0  0  0  0
   76.0272   32.1880   -1.3530 C   0  0  0  0  0  0  0  0  0  0  0  0
   75.5247   32.2200   -2.6469 C   0  0  0  0  0  0  0  0  0  0  0  0
   74.8275   33.3361   -3.1037 C   0  0  0  0  0  0  0  0  0  0  0  0
   74.6285   34.4407   -2.2857 C   0  0  0  0  0  0  0  0  0  0  0  0
   75.1443   34.4328   -0.9843 C   0  0  0  0  0  0  0  0  0  0  0  0
   74.3352   33.3558   -4.3773 O   0  0  0  0  0  0  0  0  0  0  0  0
   75.6918   31.1766   -3.5136 O   0  0  0  0  0  0  0  0  0  0  0  0
   74.5849   32.4881   -4.7538 H   0  0  0  0  0  0  0  0  0  0  0  0
   76.1972   30.4792   -3.0609 H   0  0  0  0  0  0  0  0  0  0  0  0
 18 19  2  0  0  0
 19 20  1  0  0  0
 20 21  2  0  0  0
 21 22  1  0  0  0
 22 23  2  0  0  0
 18 23  1  0  0  0
 23  1  1  0  0  0
  1  2  2  0  0  0
  2  3  1  0  0  0
  3  4  2  0  0  0
  3  5  1  0  0  0
  5  6  2  0  0  0
  6  7  1  0  0  0
  7  8  2  0  0  0
  8  9  1  0  0  0
  9 10  2  0  0  0
  5 10  1  0  0  0
 10 11  1  0  0  0
  1 11  1  0  0  0
  8 12  1  0  0  0
  6 13  1  0  0  0
  2 14  1  0  0  0
 21 24  1  0  0  0
 20 25  1  0  0  0
 12 15  1  0  0  0
 13 16  1  0  0  0
 14 17  1  0  0  0
 24 26  1  0  0  0
 25 27  1  0  0  0
M  END
> <minimizedAffinity>
-9.85495

$$$$
Quercetin


 27 29  0  0  0  0  0  0  0  0999 V2000
   75.3158   35.1797    0.2227 C   0  0  0  0  0  0  0  0  0  0  0  0
   75.6693   34.9721    1.5075 C   0  0  0  0  0  0  0  0  0  0  0  0
   75.5300   36.1080    2.4584 C   0  0  0  0  0  0  0  0  0  0  0  0
   75.8068   36.0199    3.6525 O   0  0  0  0  0  0  0  0  0  0  0  0
   75.0348   37.3789    1.9173 C   0  0  0  0  0  0  0  0  0  0  0  0
   74.8604   38.5038    2.7328 C   0  0  0  0  0  0  0  0  0  0  0  0
   74.3919   39.6992    2.1933 C   0  0  0  0  0  0  0  0  0  0  0  0
   74.1024   39.7604    0.8334 C   0  0  0  0  0  0  0  0  0  0  0  0
   74.2711   38.6483    0.0124 C   0  0  0  0  0  0  0  0  0  0  0  0
   74.7365   37.4525    0.5599 C   0  0  0  0  0  0  0  0  0  0  0  0
   74.8718   36.3867   -0.2917 O   0  0  0  0  0  0  0  0  0  0  0  0
   73.6420   40.9083    0.2592 O   0  0  0  0  0  0  0  0  0  0  0  0
   75.1292   38.5006    4.0756 O   0  0  0  0  0  0  0  0  0  0  0  0
   76.1552   33.7774    2.0093 O   0  0  0  0  0  0  0  0  0  0  0  0
   73.5729   41.5955    0.9438 H   0  0  0  0  0  0  0  0  0  0  0  0
   75.4549   37.6032    4.3200 H   0  0  0  0  0  0  0  0  0  0  0  0
   76.3626   33.1813    1.2703 H   0  0  0  0  0  0  0  0  0  0  0  0
   75.9840   32.8801   -0.4955 C   0  0  0  0  0  0  0  0  0  0  0  0
   76.0691   31.8727   -1.4619 C   0  0  0  0  0  0  0  0  0  0  0  0
   75.5274   32.0983   -2.7203 C   0  0  0  0  0  0  0  0  0  0  0  0
   74.8997   33.3077   -3.0098 C   0  0  0  0  0  0  0  0  0  0  0  0
   74.8101   34.3144   -2.0572 C   0  0  0  0  0  0  0  0  0  0  0  0
   75.3670   34.1108   -0.7891 C   0  0  0  0  0  0  0  0  0  0  0  0
   74.3680   33.5180   -4.2499 O   0  0  0  0  0  0  0  0  0  0  0  0
   75.5881   31.1604   -3.7125 O   0  0  0  0  0  0  0  0  0  0  0  0
   74.5403   32.6880   -4.7383 H   0  0  0  0  0  0  0  0  0  0  0  0
   76.0554   30.3794   -3.3687 H   0  0  0  0  0  0  0  0  0  0  0  0
 18 19  2  0  0  0
 19 20  1  0  0  0
 20 21  2  0  0  0
 21 22  1  0  0  0
 22 23  2  0  0  0
 18 23  1  0  0  0
 23  1  1  0  0  0
  1  2  2  0  0  0
  2  3  1  0  0  0
  3  4  2  0  0  0
  3  5  1  0  0  0
  5  6  2  0  0  0
  6  7  1  0  0  0
  7  8  2  0  0  0
  8  9  1  0  0  0
  9 10  2  0  0  0
  5 10  1  0  0  0
 10 11  1  0  0  0
  1 11  1  0  0  0
  8 12  1  0  0  0
  6 13  1  0  0  0
  2 14  1  0  0  0
 21 24  1  0  0  0
 20 25  1  0  0  0
 12 15  1  0  0  0
 13 16  1  0  0  0
 14 17  1  0  0  0
 24 26  1  0  0  0
 25 27  1  0  0  0
M  END
> <minimizedAffinity>
-9.81622

$$$$
