Quercetin


 27 29  0  0  0  0  0  0  0  0999 V2000
   87.7134   29.3537    1.8056 C   0  0  0  0  0  0  0  0  0  0  0  0
   87.4094   29.2667    0.4945 C   0  0  0  0  0  0  0  0  0  0  0  0
   88.2948   29.9707   -0.4721 C   0  0  0  0  0  0  0  0  0  0  0  0
   88.1176   29.9407   -1.6877 O   0  0  0  0  0  0  0  0  0  0  0  0
   89.4251   30.7257    0.0808 C   0  0  0  0  0  0  0  0  0  0  0  0
   90.3207   31.4143   -0.7466 C   0  0  0  0  0  0  0  0  0  0  0  0
   91.3836   32.1261   -0.1960 C   0  0  0  0  0  0  0  0  0  0  0  0
   91.5413   32.1453    1.1866 C   0  0  0  0  0  0  0  0  0  0  0  0
   90.6577   31.4638    2.0197 C   0  0  0  0  0  0  0  0  0  0  0  0
   89.5976   30.7490    1.4616 C   0  0  0  0  0  0  0  0  0  0  0  0
   88.7662   30.0868    2.3277 O   0  0  0  0  0  0  0  0  0  0  0  0
   92.5657   32.8284    1.7723 O   0  0  0  0  0  0  0  0  0  0  0  0
   90.2138   31.4300   -2.1118 O   0  0  0  0  0  0  0  0  0  0  0  0
   86.3303   28.5702   -0.0210 O   0  0  0  0  0  0  0  0  0  0  0  0
   93.0981   33.2518    1.0773 H   0  0  0  0  0  0  0  0  0  0  0  0
   89.4235   30.8972   -2.3626 H   0  0  0  0  0  0  0  0  0  0  0  0
   85.7418   28.3087    0.7067 H   0  0  0  0  0  0  0  0  0  0  0  0
   87.1873   27.3020    3.1338 C   0  0  0  0  0  0  0  0  0  0  0  0
   86.4274   26.6210    4.0903 C   0  0  0  0  0  0  0  0  0  0  0  0
   85.4182   27.3013    4.7585 C   0  0  0  0  0  0  0  0  0  0  0  0
   85.1753   28.6455    4.4855 C   0  0  0  0  0  0  0  0  0  0  0  0
   85.9241   29.3307    3.5375 C   0  0  0  0  0  0  0  0  0  0  0  0
   86.9334   28.6553    2.8412 C   0  0  0  0  0  0  0  0  0  0  0  0
   84.1819   29.3056    5.1506 O   0  0  0  0  0  0  0  0  0  0  0  0
   84.6318   26.6909    5.6949 O   0  0  0  0  0  0  0  0  0  0  0  0
   83.8044   28.6389    5.7590 H   0  0  0  0  0  0  0  0  0  0  0  0
   84.9119   25.7624    5.7731 H   0  0  0  0  0  0  0  0  0  0  0  0
 18 19  2  0  0  0
 19 20  1  0  0  0
 20 21  2  0  0  0
 21 22  1  0  0  0
 22 23  2  0  0  0
 18 23  1  0  0  0
 23  1  1  0  0  0
  1  2  2  0  0  0
  2  3  1  0  0  0
  3  4  2  0  0  0
  3  5  1  0  0  0
  5  6  2  0  0  0
  6  7  1  0  0  0
  7  8  2  0  0  0
  8  9  1  0  0  0
  9 10  2  0  0  0
  5 10  1  0  0  0
 10 11  1  0  0  0
  1 11  1  0  0  0
  8 12  1  0  0  0
  6 13  1  0  0  0
  2 14  1  0  0  0
 21 24  1  0  0  0
 20 25  1  0  0  0
 12 15  1  0  0  0
 13 16  1  0  0  0
 14 17  1  0  0  0
 24 26  1  0  0  0
 25 27  1  0  0  0
M  END
> <minimizedAffinity>
-6.98447

$$$$
Quercetin


 27 29  0  0  0  0  0  0  0  0999 V2000
   88.1426   30.1947    1.2484 C   0  0  0  0  0  0  0  0  0  0  0  0
   87.4803   29.4712    0.3228 C   0  0  0  0  0  0  0  0  0  0  0  0
   86.5884   28.3807    0.8013 C   0  0  0  0  0  0  0  0  0  0  0  0
   85.9270   27.6748    0.0433 O   0  0  0  0  0  0  0  0  0  0  0  0
   86.5135   28.1627    2.2505 C   0  0  0  0  0  0  0  0  0  0  0  0
   85.6961   27.1675    2.8002 C   0  0  0  0  0  0  0  0  0  0  0  0
   85.6458   26.9793    4.1792 C   0  0  0  0  0  0  0  0  0  0  0  0
   86.4205   27.7917    5.0018 C   0  0  0  0  0  0  0  0  0  0  0  0
   87.2367   28.7852    4.4670 C   0  0  0  0  0  0  0  0  0  0  0  0
   87.2791   28.9715    3.0851 C   0  0  0  0  0  0  0  0  0  0  0  0
   88.0900   29.9719    2.6144 O   0  0  0  0  0  0  0  0  0  0  0  0
   86.4054   27.6452    6.3574 O   0  0  0  0  0  0  0  0  0  0  0  0
   84.9138   26.3401    2.0393 O   0  0  0  0  0  0  0  0  0  0  0  0
   87.5697   29.6671   -1.0444 O   0  0  0  0  0  0  0  0  0  0  0  0
   85.7975   26.9219    6.5879 H   0  0  0  0  0  0  0  0  0  0  0  0
   85.0494   26.5769    1.0923 H   0  0  0  0  0  0  0  0  0  0  0  0
   88.3028   30.2766   -1.2324 H   0  0  0  0  0  0  0  0  0  0  0  0
   90.3941   31.1361    0.7053 C   0  0  0  0  0  0  0  0  0  0  0  0
   91.2320   32.2127    0.3969 C   0  0  0  0  0  0  0  0  0  0  0  0
   90.6800   33.4795    0.2626 C   0  0  0  0  0  0  0  0  0  0  0  0
   89.3096   33.6707    0.4229 C   0  0  0  0  0  0  0  0  0  0  0  0
   88.4691   32.6084    0.7294 C   0  0  0  0  0  0  0  0  0  0  0  0
   89.0114   31.3274    0.8865 C   0  0  0  0  0  0  0  0  0  0  0  0
   88.7769   34.9206    0.2859 O   0  0  0  0  0  0  0  0  0  0  0  0
   91.4450   34.5748   -0.0254 O   0  0  0  0  0  0  0  0  0  0  0  0
   89.5395   35.4935    0.0685 H   0  0  0  0  0  0  0  0  0  0  0  0
   92.3723   34.2903   -0.1020 H   0  0  0  0  0  0  0  0  0  0  0  0
 18 19  2  0  0  0
 19 20  1  0  0  0
 20 21  2  0  0  0
 21 22  1  0  0  0
 22 23  2  0  0  0
 18 23  1  0  0  0
 23  1  1  0  0  0
  1  2  2  0  0  0
  2  3  1  0  0  0
  3  4  2  0  0  0
  3  5  1  0  0  0
  5  6  2  0  0  0
  6  7  1  0  0  0
  7  8  2  0  0  0
  8  9  1  0  0  0
  9 10  2  0  0  0
  5 10  1  0  0  0
 10 11  1  0  0  0
  1 11  1  0  0  0
  8 12  1  0  0  0
  6 13  1  0  0  0
  2 14  1  0  0  0
 21 24  1  0  0  0
 20 25  1  0  0  0
 12 15  1  0  0  0
 13 16  1  0  0  0
 14 17  1  0  0  0
 24 26  1  0  0  0
 25 27  1  0  0  0
M  END
> <minimizedAffinity>
-6.86573

$$$$
Quercetin


 27 29  0  0  0  0  0  0  0  0999 V2000
   89.4831   31.2945   -0.1843 C   0  0  0  0  0  0  0  0  0  0  0  0
   89.3503   32.6342   -0.1041 C   0  0  0  0  0  0  0  0  0  0  0  0
   90.2534   33.4729   -0.9376 C   0  0  0  0  0  0  0  0  0  0  0  0
   90.2035   34.7007   -0.9523 O   0  0  0  0  0  0  0  0  0  0  0  0
   91.2375   32.7739   -1.7720 C   0  0  0  0  0  0  0  0  0  0  0  0
   92.1257   33.4732   -2.5984 C   0  0  0  0  0  0  0  0  0  0  0  0
   93.0523   32.7855   -3.3780 C   0  0  0  0  0  0  0  0  0  0  0  0
   93.0846   31.3952   -3.3224 C   0  0  0  0  0  0  0  0  0  0  0  0
   92.2059   30.6887   -2.5051 C   0  0  0  0  0  0  0  0  0  0  0  0
   91.2771   31.3833   -1.7299 C   0  0  0  0  0  0  0  0  0  0  0  0
   90.4286   30.6368   -0.9537 O   0  0  0  0  0  0  0  0  0  0  0  0
   93.9740   30.6780   -4.0665 O   0  0  0  0  0  0  0  0  0  0  0  0
   92.1387   34.8394   -2.6924 O   0  0  0  0  0  0  0  0  0  0  0  0
   88.4342   33.2899    0.6999 O   0  0  0  0  0  0  0  0  0  0  0  0
   94.5190   31.2948   -4.5844 H   0  0  0  0  0  0  0  0  0  0  0  0
   91.4437   35.1938   -2.0901 H   0  0  0  0  0  0  0  0  0  0  0  0
   88.0335   32.6517    1.3135 H   0  0  0  0  0  0  0  0  0  0  0  0
   88.7992   30.1641    1.9382 C   0  0  0  0  0  0  0  0  0  0  0  0
   87.9963   29.2629    2.6448 C   0  0  0  0  0  0  0  0  0  0  0  0
   86.9967   28.5769    1.9681 C   0  0  0  0  0  0  0  0  0  0  0  0
   86.7920   28.7930    0.6072 C   0  0  0  0  0  0  0  0  0  0  0  0
   87.5839   29.6856   -0.1034 C   0  0  0  0  0  0  0  0  0  0  0  0
   88.6083   30.3721    0.5592 C   0  0  0  0  0  0  0  0  0  0  0  0
   85.8042   28.1148   -0.0478 O   0  0  0  0  0  0  0  0  0  0  0  0
   86.1862   27.6739    2.5970 O   0  0  0  0  0  0  0  0  0  0  0  0
   85.3835   27.5617    0.6408 H   0  0  0  0  0  0  0  0  0  0  0  0
   86.4488   27.6250    3.5326 H   0  0  0  0  0  0  0  0  0  0  0  0
 18 19  2  0  0  0
 19 20  1  0  0  0
 20 21  2  0  0  0
 21 22  1  0  0  0
 22 23  2  0  0  0
 18 23  1  0  0  0
 23  1  1  0  0  0
  1  2  2  0  0  0
  2  3  1  0  0  0
  3  4  2  0  0  0
  3  5  1  0  0  0
  5  6  2  0  0  0
  6  7  1  0  0  0
  7  8  2  0  0  0
  8  9  1  0  0  0
  9 10  2  0  0  0
  5 10  1  0  0  0
 10 11  1  0  0  0
  1 11  1  0  0  0
  8 12  1  0  0  0
  6 13  1  0  0  0
  2 14  1  0  0  0
 21 24  1  0  0  0
 20 25  1  0  0  0
 12 15  1  0  0  0
 13 16  1  0  0  0
 14 17  1  0  0  0
 24 26  1  0  0  0
 25 27  1  0  0  0
M  END
> <minimizedAffinity>
-6.73972

$$$$
Quercetin


 27 29  0  0  0  0  0  0  0  0999 V2000
   86.8701   28.6283    1.1755 C   0  0  0  0  0  0  0  0  0  0  0  0
   87.1718   29.2303    2.3441 C   0  0  0  0  0  0  0  0  0  0  0  0
   88.1078   30.3864    2.3085 C   0  0  0  0  0  0  0  0  0  0  0  0
   88.4340   31.0155    3.3124 O   0  0  0  0  0  0  0  0  0  0  0  0
   88.6487   30.7714    0.9999 C   0  0  0  0  0  0  0  0  0  0  0  0
   89.5296   31.8510    0.8603 C   0  0  0  0  0  0  0  0  0  0  0  0
   90.0311   32.1935   -0.3930 C   0  0  0  0  0  0  0  0  0  0  0  0
   89.6466   31.4470   -1.5029 C   0  0  0  0  0  0  0  0  0  0  0  0
   88.7707   30.3719   -1.3769 C   0  0  0  0  0  0  0  0  0  0  0  0
   88.2684   30.0366   -0.1192 C   0  0  0  0  0  0  0  0  0  0  0  0
   87.4004   28.9773   -0.0555 O   0  0  0  0  0  0  0  0  0  0  0  0
   90.1113   31.7434   -2.7501 O   0  0  0  0  0  0  0  0  0  0  0  0
   89.9414   32.6192    1.9166 O   0  0  0  0  0  0  0  0  0  0  0  0
   86.6751   28.8508    3.5788 O   0  0  0  0  0  0  0  0  0  0  0  0
   90.7071   32.5096   -2.6889 H   0  0  0  0  0  0  0  0  0  0  0  0
   89.5193   32.2660    2.7342 H   0  0  0  0  0  0  0  0  0  0  0  0
   86.2258   27.9935    3.4926 H   0  0  0  0  0  0  0  0  0  0  0  0
   85.5618   26.9671   -0.1584 C   0  0  0  0  0  0  0  0  0  0  0  0
   84.6306   25.9276   -0.2502 C   0  0  0  0  0  0  0  0  0  0  0  0
   84.0629   25.4265    0.9136 C   0  0  0  0  0  0  0  0  0  0  0  0
   84.4253   25.9466    2.1540 C   0  0  0  0  0  0  0  0  0  0  0  0
   85.3489   26.9789    2.2558 C   0  0  0  0  0  0  0  0  0  0  0  0
   85.9174   27.5085    1.0914 C   0  0  0  0  0  0  0  0  0  0  0  0
   83.8627   25.4444    3.2925 O   0  0  0  0  0  0  0  0  0  0  0  0
   83.1382   24.4204    0.8921 O   0  0  0  0  0  0  0  0  0  0  0  0
   83.2620   24.7374    2.9820 H   0  0  0  0  0  0  0  0  0  0  0  0
   82.9825   24.1661   -0.0341 H   0  0  0  0  0  0  0  0  0  0  0  0
 18 19  2  0  0  0
 19 20  1  0  0  0
 20 21  2  0  0  0
 21 22  1  0  0  0
 22 23  2  0  0  0
 18 23  1  0  0  0
 23  1  1  0  0  0
  1  2  2  0  0  0
  2  3  1  0  0  0
  3  4  2  0  0  0
  3  5  1  0  0  0
  5  6  2  0  0  0
  6  7  1  0  0  0
  7  8  2  0  0  0
  8  9  1  0  0  0
  9 10  2  0  0  0
  5 10  1  0  0  0
 10 11  1  0  0  0
  1 11  1  0  0  0
  8 12  1  0  0  0
  6 13  1  0  0  0
  2 14  1  0  0  0
 21 24  1  0  0  0
 20 25  1  0  0  0
 12 15  1  0  0  0
 13 16  1  0  0  0
 14 17  1  0  0  0
 24 26  1  0  0  0
 25 27  1  0  0  0
M  END
> <minimizedAffinity>
-6.71155

$$$$
Quercetin


 27 29  0  0  0  0  0  0  0  0999 V2000
   89.2198   31.0284   -0.0216 C   0  0  0  0  0  0  0  0  0  0  0  0
   88.3509   30.1497   -0.5618 C   0  0  0  0  0  0  0  0  0  0  0  0
   87.4828   29.3730    0.3639 C   0  0  0  0  0  0  0  0  0  0  0  0
   86.6463   28.5611   -0.0249 O   0  0  0  0  0  0  0  0  0  0  0  0
   87.6542   29.6102    1.8018 C   0  0  0  0  0  0  0  0  0  0  0  0
   86.8788   28.9358    2.7530 C   0  0  0  0  0  0  0  0  0  0  0  0
   87.0639   29.1770    4.1120 C   0  0  0  0  0  0  0  0  0  0  0  0
   88.0309   30.0950    4.5109 C   0  0  0  0  0  0  0  0  0  0  0  0
   88.8076   30.7725    3.5744 C   0  0  0  0  0  0  0  0  0  0  0  0
   88.6142   30.5295    2.2143 C   0  0  0  0  0  0  0  0  0  0  0  0
   89.3977   31.2334    1.3366 O   0  0  0  0  0  0  0  0  0  0  0  0
   88.2494   30.3643    5.8296 O   0  0  0  0  0  0  0  0  0  0  0  0
   85.9143   28.0231    2.4178 O   0  0  0  0  0  0  0  0  0  0  0  0
   88.2069   29.9143   -1.9180 O   0  0  0  0  0  0  0  0  0  0  0  0
   87.6419   29.8252    6.3645 H   0  0  0  0  0  0  0  0  0  0  0  0
   85.8942   27.9465    1.4354 H   0  0  0  0  0  0  0  0  0  0  0  0
   88.9366   30.3429   -2.3958 H   0  0  0  0  0  0  0  0  0  0  0  0
   90.0511   33.2832   -0.7109 C   0  0  0  0  0  0  0  0  0  0  0  0
   90.8470   34.1039   -1.5166 C   0  0  0  0  0  0  0  0  0  0  0  0
   91.6871   33.5178   -2.4539 C   0  0  0  0  0  0  0  0  0  0  0  0
   91.7419   32.1316   -2.5805 C   0  0  0  0  0  0  0  0  0  0  0  0
   90.9555   31.3080   -1.7855 C   0  0  0  0  0  0  0  0  0  0  0  0
   90.0893   31.8828   -0.8479 C   0  0  0  0  0  0  0  0  0  0  0  0
   92.5737   31.5657   -3.5039 O   0  0  0  0  0  0  0  0  0  0  0  0
   92.4807   34.2632   -3.2800 O   0  0  0  0  0  0  0  0  0  0  0  0
   93.0223   32.3226   -3.9315 H   0  0  0  0  0  0  0  0  0  0  0  0
   92.3320   35.2041   -3.0820 H   0  0  0  0  0  0  0  0  0  0  0  0
 18 19  2  0  0  0
 19 20  1  0  0  0
 20 21  2  0  0  0
 21 22  1  0  0  0
 22 23  2  0  0  0
 18 23  1  0  0  0
 23  1  1  0  0  0
  1  2  2  0  0  0
  2  3  1  0  0  0
  3  4  2  0  0  0
  3  5  1  0  0  0
  5  6  2  0  0  0
  6  7  1  0  0  0
  7  8  2  0  0  0
  8  9  1  0  0  0
  9 10  2  0  0  0
  5 10  1  0  0  0
 10 11  1  0  0  0
  1 11  1  0  0  0
  8 12  1  0  0  0
  6 13  1  0  0  0
  2 14  1  0  0  0
 21 24  1  0  0  0
 20 25  1  0  0  0
 12 15  1  0  0  0
 13 16  1  0  0  0
 14 17  1  0  0  0
 24 26  1  0  0  0
 25 27  1  0  0  0
M  END
> <minimizedAffinity>
-6.70019

$$$$
