Quercetin


 27 29  0  0  0  0  0  0  0  0999 V2000
   55.9081   17.1753   -9.4419 C   0  0  0  0  0  0  0  0  0  0  0  0
   55.8241   16.0273  -10.1448 C   0  0  0  0  0  0  0  0  0  0  0  0
   55.8558   14.7461   -9.3889 C   0  0  0  0  0  0  0  0  0  0  0  0
   55.7682   13.6464   -9.9303 O   0  0  0  0  0  0  0  0  0  0  0  0
   55.9969   14.8309   -7.9308 C   0  0  0  0  0  0  0  0  0  0  0  0
   56.0278   13.6827   -7.1299 C   0  0  0  0  0  0  0  0  0  0  0  0
   56.1659   13.7909   -5.7484 C   0  0  0  0  0  0  0  0  0  0  0  0
   56.2750   15.0549   -5.1761 C   0  0  0  0  0  0  0  0  0  0  0  0
   56.2449   16.2041   -5.9619 C   0  0  0  0  0  0  0  0  0  0  0  0
   56.1019   16.0890   -7.3449 C   0  0  0  0  0  0  0  0  0  0  0  0
   56.0659   17.2532   -8.0681 O   0  0  0  0  0  0  0  0  0  0  0  0
   56.4125   15.2117   -3.8286 O   0  0  0  0  0  0  0  0  0  0  0  0
   55.9248   12.4154   -7.6386 O   0  0  0  0  0  0  0  0  0  0  0  0
   55.7117   15.9515  -11.5221 O   0  0  0  0  0  0  0  0  0  0  0  0
   56.4174   14.3341   -3.4096 H   0  0  0  0  0  0  0  0  0  0  0  0
   55.8389   12.4852   -8.6179 H   0  0  0  0  0  0  0  0  0  0  0  0
   55.8773   16.8292  -11.9049 H   0  0  0  0  0  0  0  0  0  0  0  0
   56.9278   18.9912  -10.8251 C   0  0  0  0  0  0  0  0  0  0  0  0
   56.8820   20.2611  -11.4093 C   0  0  0  0  0  0  0  0  0  0  0  0
   55.7371   21.0319  -11.2578 C   0  0  0  0  0  0  0  0  0  0  0  0
   54.6475   20.5406  -10.5424 C   0  0  0  0  0  0  0  0  0  0  0  0
   54.6831   19.2811   -9.9583 C   0  0  0  0  0  0  0  0  0  0  0  0
   55.8363   18.4979  -10.0855 C   0  0  0  0  0  0  0  0  0  0  0  0
   53.5255   21.3062  -10.4019 O   0  0  0  0  0  0  0  0  0  0  0  0
   55.6331   22.2852  -11.7929 O   0  0  0  0  0  0  0  0  0  0  0  0
   53.7235   22.1298  -10.8913 H   0  0  0  0  0  0  0  0  0  0  0  0
   56.4646   22.4924  -12.2537 H   0  0  0  0  0  0  0  0  0  0  0  0
 18 19  2  0  0  0
 19 20  1  0  0  0
 20 21  2  0  0  0
 21 22  1  0  0  0
 22 23  2  0  0  0
 18 23  1  0  0  0
 23  1  1  0  0  0
  1  2  2  0  0  0
  2  3  1  0  0  0
  3  4  2  0  0  0
  3  5  1  0  0  0
  5  6  2  0  0  0
  6  7  1  0  0  0
  7  8  2  0  0  0
  8  9  1  0  0  0
  9 10  2  0  0  0
  5 10  1  0  0  0
 10 11  1  0  0  0
  1 11  1  0  0  0
  8 12  1  0  0  0
  6 13  1  0  0  0
  2 14  1  0  0  0
 21 24  1  0  0  0
 20 25  1  0  0  0
 12 15  1  0  0  0
 13 16  1  0  0  0
 14 17  1  0  0  0
 24 26  1  0  0  0
 25 27  1  0  0  0
M  END
> <minimizedAffinity>
-7.45155

$$$$
Quercetin


 27 29  0  0  0  0  0  0  0  0999 V2000
   55.9810   17.0349   -8.7928 C   0  0  0  0  0  0  0  0  0  0  0  0
   56.2638   17.0937   -7.4754 C   0  0  0  0  0  0  0  0  0  0  0  0
   56.3302   15.8128   -6.7214 C   0  0  0  0  0  0  0  0  0  0  0  0
   56.5975   15.7536   -5.5234 O   0  0  0  0  0  0  0  0  0  0  0  0
   56.0617   14.5794   -7.4696 C   0  0  0  0  0  0  0  0  0  0  0  0
   56.1088   13.3233   -6.8523 C   0  0  0  0  0  0  0  0  0  0  0  0
   55.8466   12.1682   -7.5846 C   0  0  0  0  0  0  0  0  0  0  0  0
   55.5350   12.2800   -8.9365 C   0  0  0  0  0  0  0  0  0  0  0  0
   55.4859   13.5234   -9.5617 C   0  0  0  0  0  0  0  0  0  0  0  0
   55.7540   14.6764   -8.8234 C   0  0  0  0  0  0  0  0  0  0  0  0
   55.7037   15.8721   -9.4923 O   0  0  0  0  0  0  0  0  0  0  0  0
   55.2702   11.1783   -9.6948 O   0  0  0  0  0  0  0  0  0  0  0  0
   56.4094   13.1543   -5.5270 O   0  0  0  0  0  0  0  0  0  0  0  0
   56.4963   18.2612   -6.7694 O   0  0  0  0  0  0  0  0  0  0  0  0
   55.3403   10.3870   -9.1337 H   0  0  0  0  0  0  0  0  0  0  0  0
   56.5652   14.0441   -5.1330 H   0  0  0  0  0  0  0  0  0  0  0  0
   56.2545   19.0226   -7.3227 H   0  0  0  0  0  0  0  0  0  0  0  0
   57.0357   18.5699  -10.4607 C   0  0  0  0  0  0  0  0  0  0  0  0
   57.0198   19.7290  -11.2433 C   0  0  0  0  0  0  0  0  0  0  0  0
   55.9001   20.5493  -11.2100 C   0  0  0  0  0  0  0  0  0  0  0  0
   54.8058   20.2147  -10.4157 C   0  0  0  0  0  0  0  0  0  0  0  0
   54.8119   19.0662   -9.6349 C   0  0  0  0  0  0  0  0  0  0  0  0
   55.9399   18.2372   -9.6423 C   0  0  0  0  0  0  0  0  0  0  0  0
   53.7087   21.0275  -10.3926 O   0  0  0  0  0  0  0  0  0  0  0  0
   55.8261   21.7018  -11.9408 O   0  0  0  0  0  0  0  0  0  0  0  0
   53.9245   21.7542  -11.0109 H   0  0  0  0  0  0  0  0  0  0  0  0
   56.6573   21.8056  -12.4357 H   0  0  0  0  0  0  0  0  0  0  0  0
 18 19  2  0  0  0
 19 20  1  0  0  0
 20 21  2  0  0  0
 21 22  1  0  0  0
 22 23  2  0  0  0
 18 23  1  0  0  0
 23  1  1  0  0  0
  1  2  2  0  0  0
  2  3  1  0  0  0
  3  4  2  0  0  0
  3  5  1  0  0  0
  5  6  2  0  0  0
  6  7  1  0  0  0
  7  8  2  0  0  0
  8  9  1  0  0  0
  9 10  2  0  0  0
  5 10  1  0  0  0
 10 11  1  0  0  0
  1 11  1  0  0  0
  8 12  1  0  0  0
  6 13  1  0  0  0
  2 14  1  0  0  0
 21 24  1  0  0  0
 20 25  1  0  0  0
 12 15  1  0  0  0
 13 16  1  0  0  0
 14 17  1  0  0  0
 24 26  1  0  0  0
 25 27  1  0  0  0
M  END
> <minimizedAffinity>
-7.18668

$$$$
Quercetin


 27 29  0  0  0  0  0  0  0  0999 V2000
   56.3757   14.4436   -7.6353 C   0  0  0  0  0  0  0  0  0  0  0  0
   55.8231   14.1275   -6.4463 C   0  0  0  0  0  0  0  0  0  0  0  0
   56.2133   12.8352   -5.8206 C   0  0  0  0  0  0  0  0  0  0  0  0
   55.7827   12.4607   -4.7323 O   0  0  0  0  0  0  0  0  0  0  0  0
   57.1594   11.9910   -6.5593 C   0  0  0  0  0  0  0  0  0  0  0  0
   57.5952   10.7613   -6.0507 C   0  0  0  0  0  0  0  0  0  0  0  0
   58.4912    9.9777   -6.7736 C   0  0  0  0  0  0  0  0  0  0  0  0
   58.9448   10.4325   -8.0082 C   0  0  0  0  0  0  0  0  0  0  0  0
   58.5192   11.6540   -8.5241 C   0  0  0  0  0  0  0  0  0  0  0  0
   57.6250   12.4363   -7.7929 C   0  0  0  0  0  0  0  0  0  0  0  0
   57.2496   13.6348   -8.3428 O   0  0  0  0  0  0  0  0  0  0  0  0
   59.8217    9.7007   -8.7530 O   0  0  0  0  0  0  0  0  0  0  0  0
   57.1821   10.2649   -4.8430 O   0  0  0  0  0  0  0  0  0  0  0  0
   54.9153   14.9176   -5.7628 O   0  0  0  0  0  0  0  0  0  0  0  0
   60.0306    8.8801   -8.2748 H   0  0  0  0  0  0  0  0  0  0  0  0
   56.5529   10.9113   -4.4460 H   0  0  0  0  0  0  0  0  0  0  0  0
   54.6134   15.6343   -6.3455 H   0  0  0  0  0  0  0  0  0  0  0  0
   56.4407   16.9418   -7.7106 C   0  0  0  0  0  0  0  0  0  0  0  0
   56.1472   18.1585   -8.3348 C   0  0  0  0  0  0  0  0  0  0  0  0
   55.5163   18.1467   -9.5715 C   0  0  0  0  0  0  0  0  0  0  0  0
   55.1909   16.9387  -10.1842 C   0  0  0  0  0  0  0  0  0  0  0  0
   55.4778   15.7252   -9.5726 C   0  0  0  0  0  0  0  0  0  0  0  0
   56.0971   15.7188   -8.3172 C   0  0  0  0  0  0  0  0  0  0  0  0
   54.5729   16.9388  -11.4019 O   0  0  0  0  0  0  0  0  0  0  0  0
   55.1909   19.3002  -10.2284 O   0  0  0  0  0  0  0  0  0  0  0  0
   54.4807   17.8847  -11.6339 H   0  0  0  0  0  0  0  0  0  0  0  0
   55.4713   20.0546   -9.6816 H   0  0  0  0  0  0  0  0  0  0  0  0
 18 19  2  0  0  0
 19 20  1  0  0  0
 20 21  2  0  0  0
 21 22  1  0  0  0
 22 23  2  0  0  0
 18 23  1  0  0  0
 23  1  1  0  0  0
  1  2  2  0  0  0
  2  3  1  0  0  0
  3  4  2  0  0  0
  3  5  1  0  0  0
  5  6  2  0  0  0
  6  7  1  0  0  0
  7  8  2  0  0  0
  8  9  1  0  0  0
  9 10  2  0  0  0
  5 10  1  0  0  0
 10 11  1  0  0  0
  1 11  1  0  0  0
  8 12  1  0  0  0
  6 13  1  0  0  0
  2 14  1  0  0  0
 21 24  1  0  0  0
 20 25  1  0  0  0
 12 15  1  0  0  0
 13 16  1  0  0  0
 14 17  1  0  0  0
 24 26  1  0  0  0
 25 27  1  0  0  0
M  END
> <minimizedAffinity>
-6.80556

$$$$
Quercetin


 27 29  0  0  0  0  0  0  0  0999 V2000
   55.3356   13.3267   -6.9993 C   0  0  0  0  0  0  0  0  0  0  0  0
   55.8073   13.8921   -5.8694 C   0  0  0  0  0  0  0  0  0  0  0  0
   56.2407   15.3140   -5.9328 C   0  0  0  0  0  0  0  0  0  0  0  0
   56.6684   15.9283   -4.9582 O   0  0  0  0  0  0  0  0  0  0  0  0
   56.1394   15.9888   -7.2320 C   0  0  0  0  0  0  0  0  0  0  0  0
   56.5135   17.3286   -7.3926 C   0  0  0  0  0  0  0  0  0  0  0  0
   56.4104   17.9444   -8.6374 C   0  0  0  0  0  0  0  0  0  0  0  0
   55.9333   17.2094   -9.7186 C   0  0  0  0  0  0  0  0  0  0  0  0
   55.5575   15.8767   -9.5713 C   0  0  0  0  0  0  0  0  0  0  0  0
   55.6590   15.2669   -8.3206 C   0  0  0  0  0  0  0  0  0  0  0  0
   55.2635   13.9573   -8.2303 O   0  0  0  0  0  0  0  0  0  0  0  0
   55.8151   17.7682  -10.9568 O   0  0  0  0  0  0  0  0  0  0  0  0
   56.9890   18.0987   -6.3648 O   0  0  0  0  0  0  0  0  0  0  0  0
   55.9202   13.2457   -4.6509 O   0  0  0  0  0  0  0  0  0  0  0  0
   56.1100   18.6939  -10.9125 H   0  0  0  0  0  0  0  0  0  0  0  0
   57.0150   17.5416   -5.5522 H   0  0  0  0  0  0  0  0  0  0  0  0
   55.7754   12.2934   -4.7798 H   0  0  0  0  0  0  0  0  0  0  0  0
   55.6201   10.9136   -7.5881 C   0  0  0  0  0  0  0  0  0  0  0  0
   55.1375    9.6028   -7.6591 C   0  0  0  0  0  0  0  0  0  0  0  0
   53.8693    9.3239   -7.1677 C   0  0  0  0  0  0  0  0  0  0  0  0
   53.0952   10.3351   -6.6031 C   0  0  0  0  0  0  0  0  0  0  0  0
   53.5652   11.6398   -6.5280 C   0  0  0  0  0  0  0  0  0  0  0  0
   54.8343   11.9424   -7.0353 C   0  0  0  0  0  0  0  0  0  0  0  0
   51.8502   10.0490   -6.1204 O   0  0  0  0  0  0  0  0  0  0  0  0
   53.3344    8.0673   -7.2183 O   0  0  0  0  0  0  0  0  0  0  0  0
   51.7396    9.0888   -6.2713 H   0  0  0  0  0  0  0  0  0  0  0  0
   53.9810    7.4749   -7.6398 H   0  0  0  0  0  0  0  0  0  0  0  0
 18 19  2  0  0  0
 19 20  1  0  0  0
 20 21  2  0  0  0
 21 22  1  0  0  0
 22 23  2  0  0  0
 18 23  1  0  0  0
 23  1  1  0  0  0
  1  2  2  0  0  0
  2  3  1  0  0  0
  3  4  2  0  0  0
  3  5  1  0  0  0
  5  6  2  0  0  0
  6  7  1  0  0  0
  7  8  2  0  0  0
  8  9  1  0  0  0
  9 10  2  0  0  0
  5 10  1  0  0  0
 10 11  1  0  0  0
  1 11  1  0  0  0
  8 12  1  0  0  0
  6 13  1  0  0  0
  2 14  1  0  0  0
 21 24  1  0  0  0
 20 25  1  0  0  0
 12 15  1  0  0  0
 13 16  1  0  0  0
 14 17  1  0  0  0
 24 26  1  0  0  0
 25 27  1  0  0  0
M  END
> <minimizedAffinity>
-6.63180

$$$$
Quercetin


 27 29  0  0  0  0  0  0  0  0999 V2000
   56.8943   13.4732   -7.6692 C   0  0  0  0  0  0  0  0  0  0  0  0
   56.4405   12.8463   -6.5646 C   0  0  0  0  0  0  0  0  0  0  0  0
   56.9577   11.4807   -6.2792 C   0  0  0  0  0  0  0  0  0  0  0  0
   56.6232   10.8304   -5.2916 O   0  0  0  0  0  0  0  0  0  0  0  0
   57.9116   10.9108   -7.2376 C   0  0  0  0  0  0  0  0  0  0  0  0
   58.4625    9.6367   -7.0532 C   0  0  0  0  0  0  0  0  0  0  0  0
   59.3634    9.1178   -7.9798 C   0  0  0  0  0  0  0  0  0  0  0  0
   59.7060    9.8817   -9.0915 C   0  0  0  0  0  0  0  0  0  0  0  0
   59.1655   11.1503   -9.2855 C   0  0  0  0  0  0  0  0  0  0  0  0
   58.2670   11.6662   -8.3512 C   0  0  0  0  0  0  0  0  0  0  0  0
   57.7758   12.9245   -8.5858 O   0  0  0  0  0  0  0  0  0  0  0  0
   60.5830    9.4166  -10.0263 O   0  0  0  0  0  0  0  0  0  0  0  0
   58.1614    8.8422   -5.9792 O   0  0  0  0  0  0  0  0  0  0  0  0
   55.5251   13.3796   -5.6742 O   0  0  0  0  0  0  0  0  0  0  0  0
   60.8778    8.5274   -9.7648 H   0  0  0  0  0  0  0  0  0  0  0  0
   57.5152    9.3253   -5.4132 H   0  0  0  0  0  0  0  0  0  0  0  0
   55.1383   14.1845   -6.0575 H   0  0  0  0  0  0  0  0  0  0  0  0
   55.9197   15.1213   -9.2769 C   0  0  0  0  0  0  0  0  0  0  0  0
   55.5623   16.4264   -9.6303 C   0  0  0  0  0  0  0  0  0  0  0  0
   55.7660   17.4519   -8.7168 C   0  0  0  0  0  0  0  0  0  0  0  0
   56.3090   17.1801   -7.4631 C   0  0  0  0  0  0  0  0  0  0  0  0
   56.6673   15.8877   -7.1026 C   0  0  0  0  0  0  0  0  0  0  0  0
   56.4859   14.8445   -8.0182 C   0  0  0  0  0  0  0  0  0  0  0  0
   56.5025   18.1960   -6.5712 O   0  0  0  0  0  0  0  0  0  0  0  0
   55.4500   18.7501   -9.0045 O   0  0  0  0  0  0  0  0  0  0  0  0
   56.1778   18.9960   -7.0313 H   0  0  0  0  0  0  0  0  0  0  0  0
   55.0902   18.7857   -9.9078 H   0  0  0  0  0  0  0  0  0  0  0  0
 18 19  2  0  0  0
 19 20  1  0  0  0
 20 21  2  0  0  0
 21 22  1  0  0  0
 22 23  2  0  0  0
 18 23  1  0  0  0
 23  1  1  0  0  0
  1  2  2  0  0  0
  2  3  1  0  0  0
  3  4  2  0  0  0
  3  5  1  0  0  0
  5  6  2  0  0  0
  6  7  1  0  0  0
  7  8  2  0  0  0
  8  9  1  0  0  0
  9 10  2  0  0  0
  5 10  1  0  0  0
 10 11  1  0  0  0
  1 11  1  0  0  0
  8 12  1  0  0  0
  6 13  1  0  0  0
  2 14  1  0  0  0
 21 24  1  0  0  0
 20 25  1  0  0  0
 12 15  1  0  0  0
 13 16  1  0  0  0
 14 17  1  0  0  0
 24 26  1  0  0  0
 25 27  1  0  0  0
M  END
> <minimizedAffinity>
-6.63166

$$$$
