Quercetin


 27 29  0  0  0  0  0  0  0  0999 V2000
    5.6729   19.1302   17.3687 C   0  0  0  0  0  0  0  0  0  0  0  0
    5.9112   20.4143   17.7055 C   0  0  0  0  0  0  0  0  0  0  0  0
    5.6819   20.8153   19.1198 C   0  0  0  0  0  0  0  0  0  0  0  0
    5.8851   21.9541   19.5347 O   0  0  0  0  0  0  0  0  0  0  0  0
    5.1925   19.7817   20.0392 C   0  0  0  0  0  0  0  0  0  0  0  0
    4.9547   20.0572   21.3914 C   0  0  0  0  0  0  0  0  0  0  0  0
    4.4870   19.0587   22.2422 C   0  0  0  0  0  0  0  0  0  0  0  0
    4.2574   17.7854   21.7294 C   0  0  0  0  0  0  0  0  0  0  0  0
    4.4909   17.4990   20.3868 C   0  0  0  0  0  0  0  0  0  0  0  0
    4.9635   18.5026   19.5407 C   0  0  0  0  0  0  0  0  0  0  0  0
    5.1877   18.1618   18.2318 O   0  0  0  0  0  0  0  0  0  0  0  0
    3.7992   16.7755   22.5226 O   0  0  0  0  0  0  0  0  0  0  0  0
    5.1628   21.2905   21.9492 O   0  0  0  0  0  0  0  0  0  0  0  0
    6.3533   21.3909   16.8302 O   0  0  0  0  0  0  0  0  0  0  0  0
    3.6824   17.1150   23.4265 H   0  0  0  0  0  0  0  0  0  0  0  0
    5.4844   21.8959   21.2412 H   0  0  0  0  0  0  0  0  0  0  0  0
    6.2959   21.0542   15.9204 H   0  0  0  0  0  0  0  0  0  0  0  0
    7.1917   18.1567   15.6377 C   0  0  0  0  0  0  0  0  0  0  0  0
    7.4388   17.7008   14.3388 C   0  0  0  0  0  0  0  0  0  0  0  0
    6.4012   17.6990   13.4162 C   0  0  0  0  0  0  0  0  0  0  0  0
    5.1309   18.1357   13.7849 C   0  0  0  0  0  0  0  0  0  0  0  0
    4.8752   18.5905   15.0721 C   0  0  0  0  0  0  0  0  0  0  0  0
    5.9143   18.6164   16.0098 C   0  0  0  0  0  0  0  0  0  0  0  0
    4.1169   18.1270   12.8702 O   0  0  0  0  0  0  0  0  0  0  0  0
    6.5794   17.2780   12.1283 O   0  0  0  0  0  0  0  0  0  0  0  0
    4.5209   17.7682   12.0547 H   0  0  0  0  0  0  0  0  0  0  0  0
    7.5087   17.0115   12.0181 H   0  0  0  0  0  0  0  0  0  0  0  0
 18 19  2  0  0  0
 19 20  1  0  0  0
 20 21  2  0  0  0
 21 22  1  0  0  0
 22 23  2  0  0  0
 18 23  1  0  0  0
 23  1  1  0  0  0
  1  2  2  0  0  0
  2  3  1  0  0  0
  3  4  2  0  0  0
  3  5  1  0  0  0
  5  6  2  0  0  0
  6  7  1  0  0  0
  7  8  2  0  0  0
  8  9  1  0  0  0
  9 10  2  0  0  0
  5 10  1  0  0  0
 10 11  1  0  0  0
  1 11  1  0  0  0
  8 12  1  0  0  0
  6 13  1  0  0  0
  2 14  1  0  0  0
 21 24  1  0  0  0
 20 25  1  0  0  0
 12 15  1  0  0  0
 13 16  1  0  0  0
 14 17  1  0  0  0
 24 26  1  0  0  0
 25 27  1  0  0  0
M  END
> <minimizedAffinity>
-6.68886

$$$$
Quercetin


 27 29  0  0  0  0  0  0  0  0999 V2000
    5.4906   19.1271   17.4316 C   0  0  0  0  0  0  0  0  0  0  0  0
    5.0739   18.3055   18.4166 C   0  0  0  0  0  0  0  0  0  0  0  0
    4.7612   18.9103   19.7396 C   0  0  0  0  0  0  0  0  0  0  0  0
    4.3579   18.2546   20.6975 O   0  0  0  0  0  0  0  0  0  0  0  0
    4.9506   20.3589   19.8766 C   0  0  0  0  0  0  0  0  0  0  0  0
    4.6752   21.0233   21.0781 C   0  0  0  0  0  0  0  0  0  0  0  0
    4.8666   22.3987   21.1825 C   0  0  0  0  0  0  0  0  0  0  0  0
    5.3372   23.1023   20.0778 C   0  0  0  0  0  0  0  0  0  0  0  0
    5.6139   22.4530   18.8774 C   0  0  0  0  0  0  0  0  0  0  0  0
    5.4158   21.0756   18.7780 C   0  0  0  0  0  0  0  0  0  0  0  0
    5.6923   20.4905   17.5693 O   0  0  0  0  0  0  0  0  0  0  0  0
    5.5410   24.4494   20.1314 O   0  0  0  0  0  0  0  0  0  0  0  0
    4.2109   20.3820   22.1956 O   0  0  0  0  0  0  0  0  0  0  0  0
    4.9163   16.9365   18.2889 O   0  0  0  0  0  0  0  0  0  0  0  0
    5.3086   24.7666   21.0210 H   0  0  0  0  0  0  0  0  0  0  0  0
    4.1277   19.4228   21.9852 H   0  0  0  0  0  0  0  0  0  0  0  0
    5.3132   16.6461   17.4507 H   0  0  0  0  0  0  0  0  0  0  0  0
    7.0811   18.2386   15.7193 C   0  0  0  0  0  0  0  0  0  0  0  0
    7.3715   17.8094   14.4203 C   0  0  0  0  0  0  0  0  0  0  0  0
    6.3526   17.7762   13.4777 C   0  0  0  0  0  0  0  0  0  0  0  0
    5.0584   18.1556   13.8267 C   0  0  0  0  0  0  0  0  0  0  0  0
    4.7598   18.5834   15.1137 C   0  0  0  0  0  0  0  0  0  0  0  0
    5.7789   18.6406   16.0718 C   0  0  0  0  0  0  0  0  0  0  0  0
    4.0632   18.1164   12.8923 O   0  0  0  0  0  0  0  0  0  0  0  0
    6.5725   17.3789   12.1887 O   0  0  0  0  0  0  0  0  0  0  0  0
    4.4971   17.7847   12.0807 H   0  0  0  0  0  0  0  0  0  0  0  0
    7.5139   17.1524   12.0935 H   0  0  0  0  0  0  0  0  0  0  0  0
 18 19  2  0  0  0
 19 20  1  0  0  0
 20 21  2  0  0  0
 21 22  1  0  0  0
 22 23  2  0  0  0
 18 23  1  0  0  0
 23  1  1  0  0  0
  1  2  2  0  0  0
  2  3  1  0  0  0
  3  4  2  0  0  0
  3  5  1  0  0  0
  5  6  2  0  0  0
  6  7  1  0  0  0
  7  8  2  0  0  0
  8  9  1  0  0  0
  9 10  2  0  0  0
  5 10  1  0  0  0
 10 11  1  0  0  0
  1 11  1  0  0  0
  8 12  1  0  0  0
  6 13  1  0  0  0
  2 14  1  0  0  0
 21 24  1  0  0  0
 20 25  1  0  0  0
 12 15  1  0  0  0
 13 16  1  0  0  0
 14 17  1  0  0  0
 24 26  1  0  0  0
 25 27  1  0  0  0
M  END
> <minimizedAffinity>
-6.43024

$$$$
Quercetin


 27 29  0  0  0  0  0  0  0  0999 V2000
    4.7056   18.9980   17.4778 C   0  0  0  0  0  0  0  0  0  0  0  0
    3.5775   19.1686   16.7587 C   0  0  0  0  0  0  0  0  0  0  0  0
    3.6214   18.8377   15.3088 C   0  0  0  0  0  0  0  0  0  0  0  0
    2.6459   18.9401   14.5684 O   0  0  0  0  0  0  0  0  0  0  0  0
    4.9013   18.3678   14.7664 C   0  0  0  0  0  0  0  0  0  0  0  0
    5.0424   18.0225   13.4167 C   0  0  0  0  0  0  0  0  0  0  0  0
    6.2694   17.5823   12.9267 C   0  0  0  0  0  0  0  0  0  0  0  0
    7.3526   17.4929   13.7959 C   0  0  0  0  0  0  0  0  0  0  0  0
    7.2245   17.8326   15.1403 C   0  0  0  0  0  0  0  0  0  0  0  0
    5.9915   18.2686   15.6259 C   0  0  0  0  0  0  0  0  0  0  0  0
    5.9194   18.5777   16.9597 O   0  0  0  0  0  0  0  0  0  0  0  0
    8.5737   17.0680   13.3630 O   0  0  0  0  0  0  0  0  0  0  0  0
    4.0118   18.0912   12.5175 O   0  0  0  0  0  0  0  0  0  0  0  0
    2.3778   19.6316   17.2703 O   0  0  0  0  0  0  0  0  0  0  0  0
    8.5172   16.8667   12.4132 H   0  0  0  0  0  0  0  0  0  0  0  0
    3.2131   18.4197   12.9925 H   0  0  0  0  0  0  0  0  0  0  0  0
    2.5240   19.9731   18.1683 H   0  0  0  0  0  0  0  0  0  0  0  0
    5.1850   20.4949   19.4221 C   0  0  0  0  0  0  0  0  0  0  0  0
    5.2725   20.7287   20.7982 C   0  0  0  0  0  0  0  0  0  0  0  0
    4.9238   19.7129   21.6781 C   0  0  0  0  0  0  0  0  0  0  0  0
    4.4836   18.4830   21.1942 C   0  0  0  0  0  0  0  0  0  0  0  0
    4.3933   18.2408   19.8297 C   0  0  0  0  0  0  0  0  0  0  0  0
    4.7584   19.2477   18.9282 C   0  0  0  0  0  0  0  0  0  0  0  0
    4.1406   17.4917   22.0686 O   0  0  0  0  0  0  0  0  0  0  0  0
    4.9987   19.8726   23.0333 O   0  0  0  0  0  0  0  0  0  0  0  0
    4.2746   17.8844   22.9546 H   0  0  0  0  0  0  0  0  0  0  0  0
    5.3243   20.7704   23.2192 H   0  0  0  0  0  0  0  0  0  0  0  0
 18 19  2  0  0  0
 19 20  1  0  0  0
 20 21  2  0  0  0
 21 22  1  0  0  0
 22 23  2  0  0  0
 18 23  1  0  0  0
 23  1  1  0  0  0
  1  2  2  0  0  0
  2  3  1  0  0  0
  3  4  2  0  0  0
  3  5  1  0  0  0
  5  6  2  0  0  0
  6  7  1  0  0  0
  7  8  2  0  0  0
  8  9  1  0  0  0
  9 10  2  0  0  0
  5 10  1  0  0  0
 10 11  1  0  0  0
  1 11  1  0  0  0
  8 12  1  0  0  0
  6 13  1  0  0  0
  2 14  1  0  0  0
 21 24  1  0  0  0
 20 25  1  0  0  0
 12 15  1  0  0  0
 13 16  1  0  0  0
 14 17  1  0  0  0
 24 26  1  0  0  0
 25 27  1  0  0  0
M  END
> <minimizedAffinity>
-6.05504

$$$$
Quercetin


 27 29  0  0  0  0  0  0  0  0999 V2000
    4.7932   17.5636   17.5087 C   0  0  0  0  0  0  0  0  0  0  0  0
    4.1170   16.9416   16.5214 C   0  0  0  0  0  0  0  0  0  0  0  0
    3.3708   15.7011   16.8651 C   0  0  0  0  0  0  0  0  0  0  0  0
    2.7090   15.0684   16.0454 O   0  0  0  0  0  0  0  0  0  0  0  0
    3.4452   15.2371   18.2552 C   0  0  0  0  0  0  0  0  0  0  0  0
    2.7708   14.0857   18.6802 C   0  0  0  0  0  0  0  0  0  0  0  0
    2.8607   13.6652   20.0047 C   0  0  0  0  0  0  0  0  0  0  0  0
    3.6314   14.4031   20.8983 C   0  0  0  0  0  0  0  0  0  0  0  0
    4.3059   15.5501   20.4879 C   0  0  0  0  0  0  0  0  0  0  0  0
    4.2082   15.9686   19.1606 C   0  0  0  0  0  0  0  0  0  0  0  0
    4.8826   17.1110   18.8147 O   0  0  0  0  0  0  0  0  0  0  0  0
    3.7504   14.0309   22.2046 O   0  0  0  0  0  0  0  0  0  0  0  0
    1.9995   13.3221   17.8451 O   0  0  0  0  0  0  0  0  0  0  0  0
    4.0663   17.3717   15.2069 O   0  0  0  0  0  0  0  0  0  0  0  0
    3.2315   13.2211   22.3486 H   0  0  0  0  0  0  0  0  0  0  0  0
    2.0286   13.7267   16.9469 H   0  0  0  0  0  0  0  0  0  0  0  0
    4.7232   18.0757   15.0756 H   0  0  0  0  0  0  0  0  0  0  0  0
    6.3990   18.9585   16.1948 C   0  0  0  0  0  0  0  0  0  0  0  0
    7.1235   20.1386   15.9985 C   0  0  0  0  0  0  0  0  0  0  0  0
    6.9622   21.1858   16.8958 C   0  0  0  0  0  0  0  0  0  0  0  0
    6.0829   21.0637   17.9692 C   0  0  0  0  0  0  0  0  0  0  0  0
    5.3590   19.8961   18.1730 C   0  0  0  0  0  0  0  0  0  0  0  0
    5.5232   18.8235   17.2885 C   0  0  0  0  0  0  0  0  0  0  0  0
    5.9299   22.1010   18.8441 O   0  0  0  0  0  0  0  0  0  0  0  0
    7.6494   22.3602   16.7677 O   0  0  0  0  0  0  0  0  0  0  0  0
    6.5205   22.8026   18.5036 H   0  0  0  0  0  0  0  0  0  0  0  0
    8.2229   22.2966   15.9843 H   0  0  0  0  0  0  0  0  0  0  0  0
 18 19  2  0  0  0
 19 20  1  0  0  0
 20 21  2  0  0  0
 21 22  1  0  0  0
 22 23  2  0  0  0
 18 23  1  0  0  0
 23  1  1  0  0  0
  1  2  2  0  0  0
  2  3  1  0  0  0
  3  4  2  0  0  0
  3  5  1  0  0  0
  5  6  2  0  0  0
  6  7  1  0  0  0
  7  8  2  0  0  0
  8  9  1  0  0  0
  9 10  2  0  0  0
  5 10  1  0  0  0
 10 11  1  0  0  0
  1 11  1  0  0  0
  8 12  1  0  0  0
  6 13  1  0  0  0
  2 14  1  0  0  0
 21 24  1  0  0  0
 20 25  1  0  0  0
 12 15  1  0  0  0
 13 16  1  0  0  0
 14 17  1  0  0  0
 24 26  1  0  0  0
 25 27  1  0  0  0
M  END
> <minimizedAffinity>
-6.05293

$$$$
Quercetin


 27 29  0  0  0  0  0  0  0  0999 V2000
    4.9244   18.9586   17.9573 C   0  0  0  0  0  0  0  0  0  0  0  0
    5.1472   20.1702   18.5061 C   0  0  0  0  0  0  0  0  0  0  0  0
    5.4173   20.2315   19.9680 C   0  0  0  0  0  0  0  0  0  0  0  0
    5.6501   21.2813   20.5628 O   0  0  0  0  0  0  0  0  0  0  0  0
    5.4005   18.9639   20.7069 C   0  0  0  0  0  0  0  0  0  0  0  0
    5.6517   18.9152   22.0837 C   0  0  0  0  0  0  0  0  0  0  0  0
    5.6265   17.6991   22.7618 C   0  0  0  0  0  0  0  0  0  0  0  0
    5.3460   16.5347   22.0530 C   0  0  0  0  0  0  0  0  0  0  0  0
    5.0953   16.5702   20.6837 C   0  0  0  0  0  0  0  0  0  0  0  0
    5.1264   17.7911   20.0094 C   0  0  0  0  0  0  0  0  0  0  0  0
    4.8846   17.7658   18.6602 O   0  0  0  0  0  0  0  0  0  0  0  0
    5.3094   15.3208   22.6729 O   0  0  0  0  0  0  0  0  0  0  0  0
    5.9328   20.0282   22.8304 O   0  0  0  0  0  0  0  0  0  0  0  0
    5.1418   21.3657   17.8087 O   0  0  0  0  0  0  0  0  0  0  0  0
    5.5017   15.4454   23.6181 H   0  0  0  0  0  0  0  0  0  0  0  0
    5.9125   20.8110   22.2319 H   0  0  0  0  0  0  0  0  0  0  0  0
    4.7860   21.2138   16.9173 H   0  0  0  0  0  0  0  0  0  0  0  0
    3.3897   18.6375   16.0099 C   0  0  0  0  0  0  0  0  0  0  0  0
    3.1664   18.4312   14.6447 C   0  0  0  0  0  0  0  0  0  0  0  0
    4.2548   18.3759   13.7844 C   0  0  0  0  0  0  0  0  0  0  0  0
    5.5487   18.5345   14.2754 C   0  0  0  0  0  0  0  0  0  0  0  0
    5.7811   18.7396   15.6292 C   0  0  0  0  0  0  0  0  0  0  0  0
    4.6966   18.7797   16.5134 C   0  0  0  0  0  0  0  0  0  0  0  0
    6.6117   18.4810   13.4199 O   0  0  0  0  0  0  0  0  0  0  0  0
    4.1058   18.1648   12.4424 O   0  0  0  0  0  0  0  0  0  0  0  0
    6.2139   18.3384   12.5376 H   0  0  0  0  0  0  0  0  0  0  0  0
    3.1569   18.0675   12.2503 H   0  0  0  0  0  0  0  0  0  0  0  0
 18 19  2  0  0  0
 19 20  1  0  0  0
 20 21  2  0  0  0
 21 22  1  0  0  0
 22 23  2  0  0  0
 18 23  1  0  0  0
 23  1  1  0  0  0
  1  2  2  0  0  0
  2  3  1  0  0  0
  3  4  2  0  0  0
  3  5  1  0  0  0
  5  6  2  0  0  0
  6  7  1  0  0  0
  7  8  2  0  0  0
  8  9  1  0  0  0
  9 10  2  0  0  0
  5 10  1  0  0  0
 10 11  1  0  0  0
  1 11  1  0  0  0
  8 12  1  0  0  0
  6 13  1  0  0  0
  2 14  1  0  0  0
 21 24  1  0  0  0
 20 25  1  0  0  0
 12 15  1  0  0  0
 13 16  1  0  0  0
 14 17  1  0  0  0
 24 26  1  0  0  0
 25 27  1  0  0  0
M  END
> <minimizedAffinity>
-5.87793

$$$$
