Quercetin


 27 29  0  0  0  0  0  0  0  0999 V2000
    7.5270    5.6788   14.4157 C   0  0  0  0  0  0  0  0  0  0  0  0
    8.1546    6.8286   14.7366 C   0  0  0  0  0  0  0  0  0  0  0  0
    8.5988    7.0077   16.1453 C   0  0  0  0  0  0  0  0  0  0  0  0
    9.1942    8.0084   16.5381 O   0  0  0  0  0  0  0  0  0  0  0  0
    8.3002    5.9217   17.0860 C   0  0  0  0  0  0  0  0  0  0  0  0
    8.6846    5.9911   18.4307 C   0  0  0  0  0  0  0  0  0  0  0  0
    8.3859    4.9478   19.3034 C   0  0  0  0  0  0  0  0  0  0  0  0
    7.6986    3.8378   18.8213 C   0  0  0  0  0  0  0  0  0  0  0  0
    7.3117    3.7569   17.4860 C   0  0  0  0  0  0  0  0  0  0  0  0
    7.6179    4.8035   16.6158 C   0  0  0  0  0  0  0  0  0  0  0  0
    7.2241    4.6654   15.3098 O   0  0  0  0  0  0  0  0  0  0  0  0
    7.3830    2.7919   19.6371 O   0  0  0  0  0  0  0  0  0  0  0  0
    9.3618    7.0578   18.9589 O   0  0  0  0  0  0  0  0  0  0  0  0
    8.4160    7.8592   13.8506 O   0  0  0  0  0  0  0  0  0  0  0  0
    7.7116    2.9823   20.5325 H   0  0  0  0  0  0  0  0  0  0  0  0
    9.5006    7.7178   18.2403 H   0  0  0  0  0  0  0  0  0  0  0  0
    7.9304    7.7006   13.0239 H   0  0  0  0  0  0  0  0  0  0  0  0
    8.0208    4.9487   12.0761 C   0  0  0  0  0  0  0  0  0  0  0  0
    7.6218    4.6961   10.7596 C   0  0  0  0  0  0  0  0  0  0  0  0
    6.2878    4.8674   10.4149 C   0  0  0  0  0  0  0  0  0  0  0  0
    5.3605    5.2750   11.3711 C   0  0  0  0  0  0  0  0  0  0  0  0
    5.7466    5.5285   12.6809 C   0  0  0  0  0  0  0  0  0  0  0  0
    7.0909    5.3787   13.0414 C   0  0  0  0  0  0  0  0  0  0  0  0
    4.0505    5.4376   11.0217 O   0  0  0  0  0  0  0  0  0  0  0  0
    5.8357    4.6494    9.1437 O   0  0  0  0  0  0  0  0  0  0  0  0
    4.0148    5.2007   10.0733 H   0  0  0  0  0  0  0  0  0  0  0  0
    6.5897    4.3785    8.5917 H   0  0  0  0  0  0  0  0  0  0  0  0
 18 19  2  0  0  0
 19 20  1  0  0  0
 20 21  2  0  0  0
 21 22  1  0  0  0
 22 23  2  0  0  0
 18 23  1  0  0  0
 23  1  1  0  0  0
  1  2  2  0  0  0
  2  3  1  0  0  0
  3  4  2  0  0  0
  3  5  1  0  0  0
  5  6  2  0  0  0
  6  7  1  0  0  0
  7  8  2  0  0  0
  8  9  1  0  0  0
  9 10  2  0  0  0
  5 10  1  0  0  0
 10 11  1  0  0  0
  1 11  1  0  0  0
  8 12  1  0  0  0
  6 13  1  0  0  0
  2 14  1  0  0  0
 21 24  1  0  0  0
 20 25  1  0  0  0
 12 15  1  0  0  0
 13 16  1  0  0  0
 14 17  1  0  0  0
 24 26  1  0  0  0
 25 27  1  0  0  0
M  END
> <minimizedAffinity>
-6.26325

$$$$
Quercetin


 27 29  0  0  0  0  0  0  0  0999 V2000
    7.4545    5.5935   12.6371 C   0  0  0  0  0  0  0  0  0  0  0  0
    6.1960    5.2523   12.2925 C   0  0  0  0  0  0  0  0  0  0  0  0
    5.9581    4.7935   10.8972 C   0  0  0  0  0  0  0  0  0  0  0  0
    4.8543    4.4430   10.4862 O   0  0  0  0  0  0  0  0  0  0  0  0
    7.1140    4.7668    9.9937 C   0  0  0  0  0  0  0  0  0  0  0  0
    6.9951    4.3422    8.6646 C   0  0  0  0  0  0  0  0  0  0  0  0
    8.1075    4.3296    7.8269 C   0  0  0  0  0  0  0  0  0  0  0  0
    9.3370    4.7468    8.3282 C   0  0  0  0  0  0  0  0  0  0  0  0
    9.4680    5.1704    9.6482 C   0  0  0  0  0  0  0  0  0  0  0  0
    8.3506    5.1765   10.4835 C   0  0  0  0  0  0  0  0  0  0  0  0
    8.5397    5.5912   11.7766 O   0  0  0  0  0  0  0  0  0  0  0  0
   10.4543    4.7528    7.5466 O   0  0  0  0  0  0  0  0  0  0  0  0
    5.8115    3.9218    8.1189 O   0  0  0  0  0  0  0  0  0  0  0  0
    5.1048    5.2985   13.1425 O   0  0  0  0  0  0  0  0  0  0  0  0
   10.2174    4.4353    6.6584 H   0  0  0  0  0  0  0  0  0  0  0  0
    5.1148    3.9869    8.8129 H   0  0  0  0  0  0  0  0  0  0  0  0
    5.3520    5.7723   13.9541 H   0  0  0  0  0  0  0  0  0  0  0  0
    7.5907    5.1494   15.0937 C   0  0  0  0  0  0  0  0  0  0  0  0
    7.8907    5.5531   16.3988 C   0  0  0  0  0  0  0  0  0  0  0  0
    8.4171    6.8207   16.6080 C   0  0  0  0  0  0  0  0  0  0  0  0
    8.6518    7.6719   15.5307 C   0  0  0  0  0  0  0  0  0  0  0  0
    8.3572    7.2806   14.2311 C   0  0  0  0  0  0  0  0  0  0  0  0
    7.8088    6.0129   14.0037 C   0  0  0  0  0  0  0  0  0  0  0  0
    9.1725    8.9156   15.7477 O   0  0  0  0  0  0  0  0  0  0  0  0
    8.7201    7.2804   17.8589 O   0  0  0  0  0  0  0  0  0  0  0  0
    9.3022    8.9653   16.7161 H   0  0  0  0  0  0  0  0  0  0  0  0
    8.4994    6.5856   18.5033 H   0  0  0  0  0  0  0  0  0  0  0  0
 18 19  2  0  0  0
 19 20  1  0  0  0
 20 21  2  0  0  0
 21 22  1  0  0  0
 22 23  2  0  0  0
 18 23  1  0  0  0
 23  1  1  0  0  0
  1  2  2  0  0  0
  2  3  1  0  0  0
  3  4  2  0  0  0
  3  5  1  0  0  0
  5  6  2  0  0  0
  6  7  1  0  0  0
  7  8  2  0  0  0
  8  9  1  0  0  0
  9 10  2  0  0  0
  5 10  1  0  0  0
 10 11  1  0  0  0
  1 11  1  0  0  0
  8 12  1  0  0  0
  6 13  1  0  0  0
  2 14  1  0  0  0
 21 24  1  0  0  0
 20 25  1  0  0  0
 12 15  1  0  0  0
 13 16  1  0  0  0
 14 17  1  0  0  0
 24 26  1  0  0  0
 25 27  1  0  0  0
M  END
> <minimizedAffinity>
-6.20681

$$$$
Quercetin


 27 29  0  0  0  0  0  0  0  0999 V2000
    7.5837    5.6670   14.7089 C   0  0  0  0  0  0  0  0  0  0  0  0
    8.1512    6.8027   15.1641 C   0  0  0  0  0  0  0  0  0  0  0  0
    8.5258    6.8637   16.6028 C   0  0  0  0  0  0  0  0  0  0  0  0
    9.0639    7.8431   17.1140 O   0  0  0  0  0  0  0  0  0  0  0  0
    8.2290    5.6843   17.4238 C   0  0  0  0  0  0  0  0  0  0  0  0
    8.5511    5.6401   18.7858 C   0  0  0  0  0  0  0  0  0  0  0  0
    8.2555    4.5095   19.5433 C   0  0  0  0  0  0  0  0  0  0  0  0
    7.6339    3.4265   18.9286 C   0  0  0  0  0  0  0  0  0  0  0  0
    7.3094    3.4583   17.5748 C   0  0  0  0  0  0  0  0  0  0  0  0
    7.6123    4.5922   16.8205 C   0  0  0  0  0  0  0  0  0  0  0  0
    7.2818    4.5639   15.4903 O   0  0  0  0  0  0  0  0  0  0  0  0
    7.3240    2.2981   19.6285 O   0  0  0  0  0  0  0  0  0  0  0  0
    9.1623    6.6753   19.4418 O   0  0  0  0  0  0  0  0  0  0  0  0
    8.4107    7.9205   14.3904 O   0  0  0  0  0  0  0  0  0  0  0  0
    7.6054    2.4147   20.5521 H   0  0  0  0  0  0  0  0  0  0  0  0
    9.3065    7.4045   18.7947 H   0  0  0  0  0  0  0  0  0  0  0  0
    7.9683    7.8236   13.5306 H   0  0  0  0  0  0  0  0  0  0  0  0
    5.8695    5.3761   12.9125 C   0  0  0  0  0  0  0  0  0  0  0  0
    5.5169    5.1647   11.5756 C   0  0  0  0  0  0  0  0  0  0  0  0
    6.5204    5.0684   10.6209 C   0  0  0  0  0  0  0  0  0  0  0  0
    7.8578    5.1915   10.9908 C   0  0  0  0  0  0  0  0  0  0  0  0
    8.2183    5.4013   12.3155 C   0  0  0  0  0  0  0  0  0  0  0  0
    7.2203    5.4825   13.2938 C   0  0  0  0  0  0  0  0  0  0  0  0
    8.8365    5.0979   10.0431 O   0  0  0  0  0  0  0  0  0  0  0  0
    6.2438    4.8502    9.3005 O   0  0  0  0  0  0  0  0  0  0  0  0
    8.3561    4.9597    9.2022 H   0  0  0  0  0  0  0  0  0  0  0  0
    5.2789    4.7804    9.1962 H   0  0  0  0  0  0  0  0  0  0  0  0
 18 19  2  0  0  0
 19 20  1  0  0  0
 20 21  2  0  0  0
 21 22  1  0  0  0
 22 23  2  0  0  0
 18 23  1  0  0  0
 23  1  1  0  0  0
  1  2  2  0  0  0
  2  3  1  0  0  0
  3  4  2  0  0  0
  3  5  1  0  0  0
  5  6  2  0  0  0
  6  7  1  0  0  0
  7  8  2  0  0  0
  8  9  1  0  0  0
  9 10  2  0  0  0
  5 10  1  0  0  0
 10 11  1  0  0  0
  1 11  1  0  0  0
  8 12  1  0  0  0
  6 13  1  0  0  0
  2 14  1  0  0  0
 21 24  1  0  0  0
 20 25  1  0  0  0
 12 15  1  0  0  0
 13 16  1  0  0  0
 14 17  1  0  0  0
 24 26  1  0  0  0
 25 27  1  0  0  0
M  END
> <minimizedAffinity>
-6.17227

$$$$
Quercetin


 27 29  0  0  0  0  0  0  0  0999 V2000
    9.8809    7.4435   20.1645 C   0  0  0  0  0  0  0  0  0  0  0  0
   11.0855    7.0876   20.6557 C   0  0  0  0  0  0  0  0  0  0  0  0
   11.5842    7.8054   21.8598 C   0  0  0  0  0  0  0  0  0  0  0  0
   12.6590    7.5468   22.3966 O   0  0  0  0  0  0  0  0  0  0  0  0
   10.7309    8.8643   22.4108 C   0  0  0  0  0  0  0  0  0  0  0  0
   11.1073    9.5914   23.5469 C   0  0  0  0  0  0  0  0  0  0  0  0
   10.2803   10.5938   24.0476 C   0  0  0  0  0  0  0  0  0  0  0  0
    9.0772   10.8639   23.4022 C   0  0  0  0  0  0  0  0  0  0  0  0
    8.6917   10.1473   22.2722 C   0  0  0  0  0  0  0  0  0  0  0  0
    9.5226    9.1413   21.7782 C   0  0  0  0  0  0  0  0  0  0  0  0
    9.0877    8.4597   20.6710 O   0  0  0  0  0  0  0  0  0  0  0  0
    8.2346   11.8360   23.8544 O   0  0  0  0  0  0  0  0  0  0  0  0
   12.2783    9.3685   24.2211 O   0  0  0  0  0  0  0  0  0  0  0  0
   11.8963    6.1019   20.1205 O   0  0  0  0  0  0  0  0  0  0  0  0
    8.6272   12.2497   24.6421 H   0  0  0  0  0  0  0  0  0  0  0  0
   12.7632    8.6447   23.7603 H   0  0  0  0  0  0  0  0  0  0  0  0
   11.5470    5.8371   19.2531 H   0  0  0  0  0  0  0  0  0  0  0  0
    8.9130    5.4059   19.0865 C   0  0  0  0  0  0  0  0  0  0  0  0
    8.3675    4.7440   17.9818 C   0  0  0  0  0  0  0  0  0  0  0  0
    8.1751    5.4489   16.8011 C   0  0  0  0  0  0  0  0  0  0  0  0
    8.5117    6.7984   16.7243 C   0  0  0  0  0  0  0  0  0  0  0  0
    9.0541    7.4647   17.8155 C   0  0  0  0  0  0  0  0  0  0  0  0
    9.2720    6.7648   19.0081 C   0  0  0  0  0  0  0  0  0  0  0  0
    8.3157    7.4827   15.5589 O   0  0  0  0  0  0  0  0  0  0  0  0
    7.6582    4.8582   15.6823 O   0  0  0  0  0  0  0  0  0  0  0  0
    7.9268    6.8257   14.9472 H   0  0  0  0  0  0  0  0  0  0  0  0
    7.4791    3.9233   15.8835 H   0  0  0  0  0  0  0  0  0  0  0  0
 18 19  2  0  0  0
 19 20  1  0  0  0
 20 21  2  0  0  0
 21 22  1  0  0  0
 22 23  2  0  0  0
 18 23  1  0  0  0
 23  1  1  0  0  0
  1  2  2  0  0  0
  2  3  1  0  0  0
  3  4  2  0  0  0
  3  5  1  0  0  0
  5  6  2  0  0  0
  6  7  1  0  0  0
  7  8  2  0  0  0
  8  9  1  0  0  0
  9 10  2  0  0  0
  5 10  1  0  0  0
 10 11  1  0  0  0
  1 11  1  0  0  0
  8 12  1  0  0  0
  6 13  1  0  0  0
  2 14  1  0  0  0
 21 24  1  0  0  0
 20 25  1  0  0  0
 12 15  1  0  0  0
 13 16  1  0  0  0
 14 17  1  0  0  0
 24 26  1  0  0  0
 25 27  1  0  0  0
M  END
> <minimizedAffinity>
-6.16827

$$$$
Quercetin


 27 29  0  0  0  0  0  0  0  0999 V2000
    8.8096    6.9757   18.6097 C   0  0  0  0  0  0  0  0  0  0  0  0
    8.1788    7.9480   19.2994 C   0  0  0  0  0  0  0  0  0  0  0  0
    8.7610    8.3637   20.6041 C   0  0  0  0  0  0  0  0  0  0  0  0
    8.2755    9.2509   21.3021 O   0  0  0  0  0  0  0  0  0  0  0  0
    9.9718    7.6657   21.0511 C   0  0  0  0  0  0  0  0  0  0  0  0
   10.6004    7.9901   22.2596 C   0  0  0  0  0  0  0  0  0  0  0  0
   11.7469    7.3099   22.6622 C   0  0  0  0  0  0  0  0  0  0  0  0
   12.2570    6.3026   21.8486 C   0  0  0  0  0  0  0  0  0  0  0  0
   11.6414    5.9714   20.6442 C   0  0  0  0  0  0  0  0  0  0  0  0
   10.4956    6.6597   20.2445 C   0  0  0  0  0  0  0  0  0  0  0  0
    9.9384    6.3009   19.0443 O   0  0  0  0  0  0  0  0  0  0  0  0
   13.3765    5.6081   22.2003 O   0  0  0  0  0  0  0  0  0  0  0  0
   10.1427    8.9710   23.0987 O   0  0  0  0  0  0  0  0  0  0  0  0
    7.0252    8.5895   18.8835 O   0  0  0  0  0  0  0  0  0  0  0  0
   13.6970    5.9422   23.0555 H   0  0  0  0  0  0  0  0  0  0  0  0
    9.3314    9.3617   22.6981 H   0  0  0  0  0  0  0  0  0  0  0  0
    6.6540    8.1162   18.1202 H   0  0  0  0  0  0  0  0  0  0  0  0
    7.4940    5.4101   17.1713 C   0  0  0  0  0  0  0  0  0  0  0  0
    7.0788    4.9524   15.9166 C   0  0  0  0  0  0  0  0  0  0  0  0
    7.5135    5.6183   14.7785 C   0  0  0  0  0  0  0  0  0  0  0  0
    8.3428    6.7322   14.8883 C   0  0  0  0  0  0  0  0  0  0  0  0
    8.7608    7.1945   16.1295 C   0  0  0  0  0  0  0  0  0  0  0  0
    8.3469    6.5240   17.2866 C   0  0  0  0  0  0  0  0  0  0  0  0
    8.7622    7.3812   13.7624 O   0  0  0  0  0  0  0  0  0  0  0  0
    7.1544    5.2148   13.5231 O   0  0  0  0  0  0  0  0  0  0  0  0
    8.3458    6.8927   13.0241 H   0  0  0  0  0  0  0  0  0  0  0  0
    6.5853    4.4298   13.6038 H   0  0  0  0  0  0  0  0  0  0  0  0
 18 19  2  0  0  0
 19 20  1  0  0  0
 20 21  2  0  0  0
 21 22  1  0  0  0
 22 23  2  0  0  0
 18 23  1  0  0  0
 23  1  1  0  0  0
  1  2  2  0  0  0
  2  3  1  0  0  0
  3  4  2  0  0  0
  3  5  1  0  0  0
  5  6  2  0  0  0
  6  7  1  0  0  0
  7  8  2  0  0  0
  8  9  1  0  0  0
  9 10  2  0  0  0
  5 10  1  0  0  0
 10 11  1  0  0  0
  1 11  1  0  0  0
  8 12  1  0  0  0
  6 13  1  0  0  0
  2 14  1  0  0  0
 21 24  1  0  0  0
 20 25  1  0  0  0
 12 15  1  0  0  0
 13 16  1  0  0  0
 14 17  1  0  0  0
 24 26  1  0  0  0
 25 27  1  0  0  0
M  END
> <minimizedAffinity>
-6.03804

$$$$
