Quercetin


 27 29  0  0  0  0  0  0  0  0999 V2000
   22.8569    5.7642   -3.8460 C   0  0  0  0  0  0  0  0  0  0  0  0
   22.5837    4.7716   -2.9748 C   0  0  0  0  0  0  0  0  0  0  0  0
   21.3495    4.8896   -2.1522 C   0  0  0  0  0  0  0  0  0  0  0  0
   20.9996    4.0339   -1.3426 O   0  0  0  0  0  0  0  0  0  0  0  0
   20.5311    6.0931   -2.3395 C   0  0  0  0  0  0  0  0  0  0  0  0
   19.3468    6.2929   -1.6194 C   0  0  0  0  0  0  0  0  0  0  0  0
   18.5902    7.4457   -1.8138 C   0  0  0  0  0  0  0  0  0  0  0  0
   19.0286    8.3964   -2.7309 C   0  0  0  0  0  0  0  0  0  0  0  0
   20.2041    8.2087   -3.4534 C   0  0  0  0  0  0  0  0  0  0  0  0
   20.9552    7.0495   -3.2573 C   0  0  0  0  0  0  0  0  0  0  0  0
   22.0966    6.9111   -4.0041 O   0  0  0  0  0  0  0  0  0  0  0  0
   18.3225    9.5411   -2.9553 O   0  0  0  0  0  0  0  0  0  0  0  0
   18.8686    5.3921   -0.7054 O   0  0  0  0  0  0  0  0  0  0  0  0
   23.3694    3.6479   -2.7868 O   0  0  0  0  0  0  0  0  0  0  0  0
   17.5324    9.5385   -2.3882 H   0  0  0  0  0  0  0  0  0  0  0  0
   19.4981    4.6349   -0.6643 H   0  0  0  0  0  0  0  0  0  0  0  0
   24.2183    3.7717   -3.2432 H   0  0  0  0  0  0  0  0  0  0  0  0
   25.2733    6.2079   -4.3097 C   0  0  0  0  0  0  0  0  0  0  0  0
   26.3786    6.2064   -5.1667 C   0  0  0  0  0  0  0  0  0  0  0  0
   26.2317    5.7111   -6.4554 C   0  0  0  0  0  0  0  0  0  0  0  0
   25.0025    5.2139   -6.8824 C   0  0  0  0  0  0  0  0  0  0  0  0
   23.8989    5.2112   -6.0393 C   0  0  0  0  0  0  0  0  0  0  0  0
   24.0245    5.7236   -4.7427 C   0  0  0  0  0  0  0  0  0  0  0  0
   24.8699    4.7267   -8.1513 O   0  0  0  0  0  0  0  0  0  0  0  0
   27.2684    5.6928   -7.3457 O   0  0  0  0  0  0  0  0  0  0  0  0
   25.7588    4.8221   -8.5484 H   0  0  0  0  0  0  0  0  0  0  0  0
   28.0522    6.0730   -6.9123 H   0  0  0  0  0  0  0  0  0  0  0  0
 18 19  2  0  0  0
 19 20  1  0  0  0
 20 21  2  0  0  0
 21 22  1  0  0  0
 22 23  2  0  0  0
 18 23  1  0  0  0
 23  1  1  0  0  0
  1  2  2  0  0  0
  2  3  1  0  0  0
  3  4  2  0  0  0
  3  5  1  0  0  0
  5  6  2  0  0  0
  6  7  1  0  0  0
  7  8  2  0  0  0
  8  9  1  0  0  0
  9 10  2  0  0  0
  5 10  1  0  0  0
 10 11  1  0  0  0
  1 11  1  0  0  0
  8 12  1  0  0  0
  6 13  1  0  0  0
  2 14  1  0  0  0
 21 24  1  0  0  0
 20 25  1  0  0  0
 12 15  1  0  0  0
 13 16  1  0  0  0
 14 17  1  0  0  0
 24 26  1  0  0  0
 25 27  1  0  0  0
M  END
> <minimizedAffinity>
-7.06666

$$$$
Quercetin


 27 29  0  0  0  0  0  0  0  0999 V2000
   22.9138    5.4170   -3.7093 C   0  0  0  0  0  0  0  0  0  0  0  0
   21.7576    6.0987   -3.8415 C   0  0  0  0  0  0  0  0  0  0  0  0
   20.7116    5.9005   -2.8020 C   0  0  0  0  0  0  0  0  0  0  0  0
   19.6313    6.4858   -2.8185 O   0  0  0  0  0  0  0  0  0  0  0  0
   21.0131    4.9582   -1.7183 C   0  0  0  0  0  0  0  0  0  0  0  0
   20.0980    4.7098   -0.6879 C   0  0  0  0  0  0  0  0  0  0  0  0
   20.4077    3.8081    0.3272 C   0  0  0  0  0  0  0  0  0  0  0  0
   21.6371    3.1563    0.3016 C   0  0  0  0  0  0  0  0  0  0  0  0
   22.5557    3.3955   -0.7173 C   0  0  0  0  0  0  0  0  0  0  0  0
   22.2412    4.3034   -1.7288 C   0  0  0  0  0  0  0  0  0  0  0  0
   23.1873    4.5095   -2.6994 O   0  0  0  0  0  0  0  0  0  0  0  0
   21.9853    2.2646    1.2726 O   0  0  0  0  0  0  0  0  0  0  0  0
   18.8752    5.3219   -0.6127 O   0  0  0  0  0  0  0  0  0  0  0  0
   21.4695    6.9711   -4.8766 O   0  0  0  0  0  0  0  0  0  0  0  0
   21.2562    2.1974    1.9127 H   0  0  0  0  0  0  0  0  0  0  0  0
   18.7860    5.9230   -1.3885 H   0  0  0  0  0  0  0  0  0  0  0  0
   22.1459    6.8803   -5.5684 H   0  0  0  0  0  0  0  0  0  0  0  0
   25.2035    6.2543   -4.2632 C   0  0  0  0  0  0  0  0  0  0  0  0
   26.2565    6.4422   -5.1643 C   0  0  0  0  0  0  0  0  0  0  0  0
   26.1369    5.9430   -6.4544 C   0  0  0  0  0  0  0  0  0  0  0  0
   24.9879    5.2561   -6.8395 C   0  0  0  0  0  0  0  0  0  0  0  0
   23.9367    5.0643   -5.9524 C   0  0  0  0  0  0  0  0  0  0  0  0
   24.0328    5.5770   -4.6533 C   0  0  0  0  0  0  0  0  0  0  0  0
   24.8821    4.7669   -8.1101 O   0  0  0  0  0  0  0  0  0  0  0  0
   27.1237    6.1035   -7.3862 O   0  0  0  0  0  0  0  0  0  0  0  0
   25.7258    5.0103   -8.5413 H   0  0  0  0  0  0  0  0  0  0  0  0
   27.8529    6.6021   -6.9786 H   0  0  0  0  0  0  0  0  0  0  0  0
 18 19  2  0  0  0
 19 20  1  0  0  0
 20 21  2  0  0  0
 21 22  1  0  0  0
 22 23  2  0  0  0
 18 23  1  0  0  0
 23  1  1  0  0  0
  1  2  2  0  0  0
  2  3  1  0  0  0
  3  4  2  0  0  0
  3  5  1  0  0  0
  5  6  2  0  0  0
  6  7  1  0  0  0
  7  8  2  0  0  0
  8  9  1  0  0  0
  9 10  2  0  0  0
  5 10  1  0  0  0
 10 11  1  0  0  0
  1 11  1  0  0  0
  8 12  1  0  0  0
  6 13  1  0  0  0
  2 14  1  0  0  0
 21 24  1  0  0  0
 20 25  1  0  0  0
 12 15  1  0  0  0
 13 16  1  0  0  0
 14 17  1  0  0  0
 24 26  1  0  0  0
 25 27  1  0  0  0
M  END
> <minimizedAffinity>
-6.88919

$$$$
Quercetin


 27 29  0  0  0  0  0  0  0  0999 V2000
   22.1586    7.2218   -4.1507 C   0  0  0  0  0  0  0  0  0  0  0  0
   22.6765    6.0704   -4.6253 C   0  0  0  0  0  0  0  0  0  0  0  0
   24.1559    5.9135   -4.6040 C   0  0  0  0  0  0  0  0  0  0  0  0
   24.7277    4.8987   -4.9957 O   0  0  0  0  0  0  0  0  0  0  0  0
   24.9423    7.0378   -4.0837 C   0  0  0  0  0  0  0  0  0  0  0  0
   26.3399    6.9840   -4.0138 C   0  0  0  0  0  0  0  0  0  0  0  0
   27.0627    8.0665   -3.5187 C   0  0  0  0  0  0  0  0  0  0  0  0
   26.3773    9.2021   -3.0973 C   0  0  0  0  0  0  0  0  0  0  0  0
   24.9877    9.2673   -3.1613 C   0  0  0  0  0  0  0  0  0  0  0  0
   24.2692    8.1777   -3.6541 C   0  0  0  0  0  0  0  0  0  0  0  0
   22.9033    8.2918   -3.6827 O   0  0  0  0  0  0  0  0  0  0  0  0
   27.0409   10.2871   -2.6059 O   0  0  0  0  0  0  0  0  0  0  0  0
   27.0653    5.8936   -4.4140 O   0  0  0  0  0  0  0  0  0  0  0  0
   21.9320    5.0206   -5.1341 O   0  0  0  0  0  0  0  0  0  0  0  0
   27.9957   10.1031   -2.6189 H   0  0  0  0  0  0  0  0  0  0  0  0
   26.4350    5.2115   -4.7440 H   0  0  0  0  0  0  0  0  0  0  0  0
   21.0123    5.3104   -5.2551 H   0  0  0  0  0  0  0  0  0  0  0  0
   20.0175    7.9949   -5.1845 C   0  0  0  0  0  0  0  0  0  0  0  0
   18.6458    8.2582   -5.1137 C   0  0  0  0  0  0  0  0  0  0  0  0
   17.9653    7.9770   -3.9366 C   0  0  0  0  0  0  0  0  0  0  0  0
   18.6397    7.4307   -2.8470 C   0  0  0  0  0  0  0  0  0  0  0  0
   20.0017    7.1658   -2.9071 C   0  0  0  0  0  0  0  0  0  0  0  0
   20.7071    7.4602   -4.0798 C   0  0  0  0  0  0  0  0  0  0  0  0
   17.9600    7.1555   -1.6950 O   0  0  0  0  0  0  0  0  0  0  0  0
   16.6279    8.2221   -3.7982 O   0  0  0  0  0  0  0  0  0  0  0  0
   17.0352    7.4121   -1.8847 H   0  0  0  0  0  0  0  0  0  0  0  0
   16.2981    8.6048   -4.6297 H   0  0  0  0  0  0  0  0  0  0  0  0
 18 19  2  0  0  0
 19 20  1  0  0  0
 20 21  2  0  0  0
 21 22  1  0  0  0
 22 23  2  0  0  0
 18 23  1  0  0  0
 23  1  1  0  0  0
  1  2  2  0  0  0
  2  3  1  0  0  0
  3  4  2  0  0  0
  3  5  1  0  0  0
  5  6  2  0  0  0
  6  7  1  0  0  0
  7  8  2  0  0  0
  8  9  1  0  0  0
  9 10  2  0  0  0
  5 10  1  0  0  0
 10 11  1  0  0  0
  1 11  1  0  0  0
  8 12  1  0  0  0
  6 13  1  0  0  0
  2 14  1  0  0  0
 21 24  1  0  0  0
 20 25  1  0  0  0
 12 15  1  0  0  0
 13 16  1  0  0  0
 14 17  1  0  0  0
 24 26  1  0  0  0
 25 27  1  0  0  0
M  END
> <minimizedAffinity>
-6.45291

$$$$
Quercetin


 27 29  0  0  0  0  0  0  0  0999 V2000
   23.6053    5.5007   -4.0519 C   0  0  0  0  0  0  0  0  0  0  0  0
   23.8642    4.8935   -5.2279 C   0  0  0  0  0  0  0  0  0  0  0  0
   24.9090    5.4907   -6.1028 C   0  0  0  0  0  0  0  0  0  0  0  0
   25.2337    5.0069   -7.1848 O   0  0  0  0  0  0  0  0  0  0  0  0
   25.5664    6.7123   -5.6245 C   0  0  0  0  0  0  0  0  0  0  0  0
   26.5684    7.3450   -6.3705 C   0  0  0  0  0  0  0  0  0  0  0  0
   27.1741    8.5054   -5.8951 C   0  0  0  0  0  0  0  0  0  0  0  0
   26.7681    9.0280   -4.6708 C   0  0  0  0  0  0  0  0  0  0  0  0
   25.7733    8.4075   -3.9195 C   0  0  0  0  0  0  0  0  0  0  0  0
   25.1736    7.2428   -4.3993 C   0  0  0  0  0  0  0  0  0  0  0  0
   24.2091    6.6674   -3.6129 O   0  0  0  0  0  0  0  0  0  0  0  0
   27.3308   10.1619   -4.1641 O   0  0  0  0  0  0  0  0  0  0  0  0
   27.0067    6.8757   -7.5801 O   0  0  0  0  0  0  0  0  0  0  0  0
   23.2271    3.7527   -5.6844 O   0  0  0  0  0  0  0  0  0  0  0  0
   28.0039   10.4838   -4.7879 H   0  0  0  0  0  0  0  0  0  0  0  0
   26.4946    6.0617   -7.7959 H   0  0  0  0  0  0  0  0  0  0  0  0
   22.4603    3.5665   -5.1172 H   0  0  0  0  0  0  0  0  0  0  0  0
   23.0279    4.0468   -2.1016 C   0  0  0  0  0  0  0  0  0  0  0  0
   22.0989    3.5062   -1.2068 C   0  0  0  0  0  0  0  0  0  0  0  0
   20.7691    3.8946   -1.2991 C   0  0  0  0  0  0  0  0  0  0  0  0
   20.3709    4.8176   -2.2635 C   0  0  0  0  0  0  0  0  0  0  0  0
   21.2855    5.3601   -3.1568 C   0  0  0  0  0  0  0  0  0  0  0  0
   22.6270    4.9657   -3.0897 C   0  0  0  0  0  0  0  0  0  0  0  0
   19.0608    5.1947   -2.3436 O   0  0  0  0  0  0  0  0  0  0  0  0
   19.8100    3.3948   -0.4637 O   0  0  0  0  0  0  0  0  0  0  0  0
   18.6154    4.7000   -1.6268 H   0  0  0  0  0  0  0  0  0  0  0  0
   20.2318    2.7642    0.1456 H   0  0  0  0  0  0  0  0  0  0  0  0
 18 19  2  0  0  0
 19 20  1  0  0  0
 20 21  2  0  0  0
 21 22  1  0  0  0
 22 23  2  0  0  0
 18 23  1  0  0  0
 23  1  1  0  0  0
  1  2  2  0  0  0
  2  3  1  0  0  0
  3  4  2  0  0  0
  3  5  1  0  0  0
  5  6  2  0  0  0
  6  7  1  0  0  0
  7  8  2  0  0  0
  8  9  1  0  0  0
  9 10  2  0  0  0
  5 10  1  0  0  0
 10 11  1  0  0  0
  1 11  1  0  0  0
  8 12  1  0  0  0
  6 13  1  0  0  0
  2 14  1  0  0  0
 21 24  1  0  0  0
 20 25  1  0  0  0
 12 15  1  0  0  0
 13 16  1  0  0  0
 14 17  1  0  0  0
 24 26  1  0  0  0
 25 27  1  0  0  0
M  END
> <minimizedAffinity>
-6.30587

$$$$
Quercetin


 27 29  0  0  0  0  0  0  0  0999 V2000
   21.8409    5.0401   -3.0294 C   0  0  0  0  0  0  0  0  0  0  0  0
   23.1747    4.9076   -3.1786 C   0  0  0  0  0  0  0  0  0  0  0  0
   23.8006    5.5026   -4.3902 C   0  0  0  0  0  0  0  0  0  0  0  0
   25.0081    5.4540   -4.6131 O   0  0  0  0  0  0  0  0  0  0  0  0
   22.9103    6.1738   -5.3441 C   0  0  0  0  0  0  0  0  0  0  0  0
   23.4037    6.7729   -6.5097 C   0  0  0  0  0  0  0  0  0  0  0  0
   22.5365    7.4009   -7.4003 C   0  0  0  0  0  0  0  0  0  0  0  0
   21.1741    7.4223   -7.1170 C   0  0  0  0  0  0  0  0  0  0  0  0
   20.6716    6.8308   -5.9608 C   0  0  0  0  0  0  0  0  0  0  0  0
   21.5462    6.2072   -5.0705 C   0  0  0  0  0  0  0  0  0  0  0  0
   20.9986    5.6525   -3.9426 O   0  0  0  0  0  0  0  0  0  0  0  0
   20.2860    8.0242   -7.9585 O   0  0  0  0  0  0  0  0  0  0  0  0
   24.7330    6.7818   -6.8387 O   0  0  0  0  0  0  0  0  0  0  0  0
   24.0079    4.2557   -2.2862 O   0  0  0  0  0  0  0  0  0  0  0  0
   20.7718    8.3914   -8.7168 H   0  0  0  0  0  0  0  0  0  0  0  0
   25.2259    6.3033   -6.1320 H   0  0  0  0  0  0  0  0  0  0  0  0
   23.4674    3.7686   -1.6421 H   0  0  0  0  0  0  0  0  0  0  0  0
   21.0398    3.1487   -1.6040 C   0  0  0  0  0  0  0  0  0  0  0  0
   20.3345    2.6569   -0.5010 C   0  0  0  0  0  0  0  0  0  0  0  0
   19.7254    3.5553    0.3648 C   0  0  0  0  0  0  0  0  0  0  0  0
   19.8258    4.9266    0.1412 C   0  0  0  0  0  0  0  0  0  0  0  0
   20.5236    5.4250   -0.9513 C   0  0  0  0  0  0  0  0  0  0  0  0
   21.1284    4.5328   -1.8445 C   0  0  0  0  0  0  0  0  0  0  0  0
   19.2250    5.8013    1.0006 O   0  0  0  0  0  0  0  0  0  0  0  0
   19.0114    3.1396    1.4535 O   0  0  0  0  0  0  0  0  0  0  0  0
   18.8086    5.2350    1.6810 H   0  0  0  0  0  0  0  0  0  0  0  0
   19.0239    2.1670    1.4760 H   0  0  0  0  0  0  0  0  0  0  0  0
 18 19  2  0  0  0
 19 20  1  0  0  0
 20 21  2  0  0  0
 21 22  1  0  0  0
 22 23  2  0  0  0
 18 23  1  0  0  0
 23  1  1  0  0  0
  1  2  2  0  0  0
  2  3  1  0  0  0
  3  4  2  0  0  0
  3  5  1  0  0  0
  5  6  2  0  0  0
  6  7  1  0  0  0
  7  8  2  0  0  0
  8  9  1  0  0  0
  9 10  2  0  0  0
  5 10  1  0  0  0
 10 11  1  0  0  0
  1 11  1  0  0  0
  8 12  1  0  0  0
  6 13  1  0  0  0
  2 14  1  0  0  0
 21 24  1  0  0  0
 20 25  1  0  0  0
 12 15  1  0  0  0
 13 16  1  0  0  0
 14 17  1  0  0  0
 24 26  1  0  0  0
 25 27  1  0  0  0
M  END
> <minimizedAffinity>
-6.27108

$$$$
