Quercetin


 27 29  0  0  0  0  0  0  0  0999 V2000
   23.4783   34.8208   -5.8837 C   0  0  0  0  0  0  0  0  0  0  0  0
   24.4547   35.7482   -5.9590 C   0  0  0  0  0  0  0  0  0  0  0  0
   25.6310   35.5927   -5.0613 C   0  0  0  0  0  0  0  0  0  0  0  0
   26.5823   36.3706   -5.0626 O   0  0  0  0  0  0  0  0  0  0  0  0
   25.6283   34.4469   -4.1445 C   0  0  0  0  0  0  0  0  0  0  0  0
   26.6932   34.2086   -3.2669 C   0  0  0  0  0  0  0  0  0  0  0  0
   26.6641   33.1154   -2.4045 C   0  0  0  0  0  0  0  0  0  0  0  0
   25.5620   32.2659   -2.4256 C   0  0  0  0  0  0  0  0  0  0  0  0
   24.4974   32.4920   -3.2942 C   0  0  0  0  0  0  0  0  0  0  0  0
   24.5346   33.5864   -4.1588 C   0  0  0  0  0  0  0  0  0  0  0  0
   23.4657   33.7537   -5.0008 O   0  0  0  0  0  0  0  0  0  0  0  0
   25.4875   31.1833   -1.5999 O   0  0  0  0  0  0  0  0  0  0  0  0
   27.8014   35.0106   -3.2034 O   0  0  0  0  0  0  0  0  0  0  0  0
   24.4435   36.8388   -6.8110 O   0  0  0  0  0  0  0  0  0  0  0  0
   26.2919   31.1489   -1.0545 H   0  0  0  0  0  0  0  0  0  0  0  0
   27.6882   35.7405   -3.8559 H   0  0  0  0  0  0  0  0  0  0  0  0
   23.5611   36.9241   -7.2091 H   0  0  0  0  0  0  0  0  0  0  0  0
   22.4102   34.5244   -8.1246 C   0  0  0  0  0  0  0  0  0  0  0  0
   21.2994   34.5863   -8.9722 C   0  0  0  0  0  0  0  0  0  0  0  0
   20.0721   34.9692   -8.4481 C   0  0  0  0  0  0  0  0  0  0  0  0
   19.9497   35.2766   -7.0949 C   0  0  0  0  0  0  0  0  0  0  0  0
   21.0466   35.2185   -6.2451 C   0  0  0  0  0  0  0  0  0  0  0  0
   22.2955   34.8521   -6.7605 C   0  0  0  0  0  0  0  0  0  0  0  0
   18.7372   35.6495   -6.5895 O   0  0  0  0  0  0  0  0  0  0  0  0
   18.9512   35.0616   -9.2246 O   0  0  0  0  0  0  0  0  0  0  0  0
   18.1273   35.6128   -7.3535 H   0  0  0  0  0  0  0  0  0  0  0  0
   19.1899   34.8253  -10.1378 H   0  0  0  0  0  0  0  0  0  0  0  0
 18 19  2  0  0  0
 19 20  1  0  0  0
 20 21  2  0  0  0
 21 22  1  0  0  0
 22 23  2  0  0  0
 18 23  1  0  0  0
 23  1  1  0  0  0
  1  2  2  0  0  0
  2  3  1  0  0  0
  3  4  2  0  0  0
  3  5  1  0  0  0
  5  6  2  0  0  0
  6  7  1  0  0  0
  7  8  2  0  0  0
  8  9  1  0  0  0
  9 10  2  0  0  0
  5 10  1  0  0  0
 10 11  1  0  0  0
  1 11  1  0  0  0
  8 12  1  0  0  0
  6 13  1  0  0  0
  2 14  1  0  0  0
 21 24  1  0  0  0
 20 25  1  0  0  0
 12 15  1  0  0  0
 13 16  1  0  0  0
 14 17  1  0  0  0
 24 26  1  0  0  0
 25 27  1  0  0  0
M  END
> <minimizedAffinity>
-5.63809

$$$$
Quercetin


 27 29  0  0  0  0  0  0  0  0999 V2000
   26.7989   35.1193   -3.4596 C   0  0  0  0  0  0  0  0  0  0  0  0
   27.9531   34.6070   -3.9331 C   0  0  0  0  0  0  0  0  0  0  0  0
   29.2101   34.9441   -3.2119 C   0  0  0  0  0  0  0  0  0  0  0  0
   30.3115   34.5160   -3.5492 O   0  0  0  0  0  0  0  0  0  0  0  0
   29.0982   35.8289   -2.0467 C   0  0  0  0  0  0  0  0  0  0  0  0
   30.2216   36.1974   -1.2962 C   0  0  0  0  0  0  0  0  0  0  0  0
   30.0882   37.0413   -0.1965 C   0  0  0  0  0  0  0  0  0  0  0  0
   28.8245   37.5146    0.1442 C   0  0  0  0  0  0  0  0  0  0  0  0
   27.6999   37.1546   -0.5939 C   0  0  0  0  0  0  0  0  0  0  0  0
   27.8396   36.3053   -1.6918 C   0  0  0  0  0  0  0  0  0  0  0  0
   26.6977   35.9740   -2.3744 O   0  0  0  0  0  0  0  0  0  0  0  0
   28.6437   38.3434    1.2117 O   0  0  0  0  0  0  0  0  0  0  0  0
   31.4875   35.7623   -1.5856 O   0  0  0  0  0  0  0  0  0  0  0  0
   28.0565   33.7892   -5.0449 O   0  0  0  0  0  0  0  0  0  0  0  0
   29.5059   38.5086    1.6301 H   0  0  0  0  0  0  0  0  0  0  0  0
   31.4373   35.1839   -2.3819 H   0  0  0  0  0  0  0  0  0  0  0  0
   27.2090   33.7881   -5.5204 H   0  0  0  0  0  0  0  0  0  0  0  0
   24.6129   35.8449   -4.4319 C   0  0  0  0  0  0  0  0  0  0  0  0
   23.3568   35.5587   -4.9764 C   0  0  0  0  0  0  0  0  0  0  0  0
   22.9888   34.2329   -5.1622 C   0  0  0  0  0  0  0  0  0  0  0  0
   23.8645   33.2049   -4.8200 C   0  0  0  0  0  0  0  0  0  0  0  0
   25.1138   33.4786   -4.2786 C   0  0  0  0  0  0  0  0  0  0  0  0
   25.4937   34.8093   -4.0674 C   0  0  0  0  0  0  0  0  0  0  0  0
   23.4934   31.9045   -5.0095 O   0  0  0  0  0  0  0  0  0  0  0  0
   21.7717   33.8856   -5.6777 O   0  0  0  0  0  0  0  0  0  0  0  0
   22.5974   31.9558   -5.3990 H   0  0  0  0  0  0  0  0  0  0  0  0
   21.2721   34.7001   -5.8611 H   0  0  0  0  0  0  0  0  0  0  0  0
 18 19  2  0  0  0
 19 20  1  0  0  0
 20 21  2  0  0  0
 21 22  1  0  0  0
 22 23  2  0  0  0
 18 23  1  0  0  0
 23  1  1  0  0  0
  1  2  2  0  0  0
  2  3  1  0  0  0
  3  4  2  0  0  0
  3  5  1  0  0  0
  5  6  2  0  0  0
  6  7  1  0  0  0
  7  8  2  0  0  0
  8  9  1  0  0  0
  9 10  2  0  0  0
  5 10  1  0  0  0
 10 11  1  0  0  0
  1 11  1  0  0  0
  8 12  1  0  0  0
  6 13  1  0  0  0
  2 14  1  0  0  0
 21 24  1  0  0  0
 20 25  1  0  0  0
 12 15  1  0  0  0
 13 16  1  0  0  0
 14 17  1  0  0  0
 24 26  1  0  0  0
 25 27  1  0  0  0
M  END
> <minimizedAffinity>
-5.58408

$$$$
Quercetin


 27 29  0  0  0  0  0  0  0  0999 V2000
   26.3011   34.4940   -3.4965 C   0  0  0  0  0  0  0  0  0  0  0  0
   25.7459   33.2969   -3.7748 C   0  0  0  0  0  0  0  0  0  0  0  0
   24.4063   33.2862   -4.4223 C   0  0  0  0  0  0  0  0  0  0  0  0
   23.8208   32.2516   -4.7336 O   0  0  0  0  0  0  0  0  0  0  0  0
   23.7810   34.5862   -4.6913 C   0  0  0  0  0  0  0  0  0  0  0  0
   22.5261   34.6823   -5.3053 C   0  0  0  0  0  0  0  0  0  0  0  0
   21.9534   35.9286   -5.5464 C   0  0  0  0  0  0  0  0  0  0  0  0
   22.6440   37.0756   -5.1665 C   0  0  0  0  0  0  0  0  0  0  0  0
   23.8928   36.9930   -4.5558 C   0  0  0  0  0  0  0  0  0  0  0  0
   24.4630   35.7415   -4.3212 C   0  0  0  0  0  0  0  0  0  0  0  0
   25.6991   35.7196   -3.7286 O   0  0  0  0  0  0  0  0  0  0  0  0
   22.1242   38.3178   -5.3809 O   0  0  0  0  0  0  0  0  0  0  0  0
   21.8028   33.5883   -5.6994 O   0  0  0  0  0  0  0  0  0  0  0  0
   26.3305   32.0727   -3.5007 O   0  0  0  0  0  0  0  0  0  0  0  0
   21.2567   38.2249   -5.8106 H   0  0  0  0  0  0  0  0  0  0  0  0
   22.3177   32.7810   -5.4658 H   0  0  0  0  0  0  0  0  0  0  0  0
   27.1051   32.2094   -2.9300 H   0  0  0  0  0  0  0  0  0  0  0  0
   28.7559   34.9168   -3.7113 C   0  0  0  0  0  0  0  0  0  0  0  0
   30.0390   35.0018   -3.1612 C   0  0  0  0  0  0  0  0  0  0  0  0
   30.2030   34.7957   -1.7980 C   0  0  0  0  0  0  0  0  0  0  0  0
   29.1022   34.5188   -0.9906 C   0  0  0  0  0  0  0  0  0  0  0  0
   27.8241   34.4321   -1.5270 C   0  0  0  0  0  0  0  0  0  0  0  0
   27.6429   34.6190   -2.9025 C   0  0  0  0  0  0  0  0  0  0  0  0
   29.2746   34.3205    0.3494 O   0  0  0  0  0  0  0  0  0  0  0  0
   31.4309   34.8523   -1.2007 O   0  0  0  0  0  0  0  0  0  0  0  0
   30.2351   34.4347    0.4961 H   0  0  0  0  0  0  0  0  0  0  0  0
   32.0961   35.0462   -1.8837 H   0  0  0  0  0  0  0  0  0  0  0  0
 18 19  2  0  0  0
 19 20  1  0  0  0
 20 21  2  0  0  0
 21 22  1  0  0  0
 22 23  2  0  0  0
 18 23  1  0  0  0
 23  1  1  0  0  0
  1  2  2  0  0  0
  2  3  1  0  0  0
  3  4  2  0  0  0
  3  5  1  0  0  0
  5  6  2  0  0  0
  6  7  1  0  0  0
  7  8  2  0  0  0
  8  9  1  0  0  0
  9 10  2  0  0  0
  5 10  1  0  0  0
 10 11  1  0  0  0
  1 11  1  0  0  0
  8 12  1  0  0  0
  6 13  1  0  0  0
  2 14  1  0  0  0
 21 24  1  0  0  0
 20 25  1  0  0  0
 12 15  1  0  0  0
 13 16  1  0  0  0
 14 17  1  0  0  0
 24 26  1  0  0  0
 25 27  1  0  0  0
M  END
> <minimizedAffinity>
-5.57777

$$$$
Quercetin


 27 29  0  0  0  0  0  0  0  0999 V2000
   26.3155   34.7033   -2.2523 C   0  0  0  0  0  0  0  0  0  0  0  0
   26.2025   35.8555   -1.5604 C   0  0  0  0  0  0  0  0  0  0  0  0
   27.2972   36.2093   -0.6168 C   0  0  0  0  0  0  0  0  0  0  0  0
   27.3010   37.2430    0.0477 O   0  0  0  0  0  0  0  0  0  0  0  0
   28.4114   35.2620   -0.4966 C   0  0  0  0  0  0  0  0  0  0  0  0
   29.4935   35.5085    0.3573 C   0  0  0  0  0  0  0  0  0  0  0  0
   30.5368   34.5913    0.4552 C   0  0  0  0  0  0  0  0  0  0  0  0
   30.4875   33.4265   -0.3050 C   0  0  0  0  0  0  0  0  0  0  0  0
   29.4173   33.1706   -1.1583 C   0  0  0  0  0  0  0  0  0  0  0  0
   28.3774   34.0956   -1.2551 C   0  0  0  0  0  0  0  0  0  0  0  0
   27.3557   33.7984   -2.1197 O   0  0  0  0  0  0  0  0  0  0  0  0
   31.4846   32.4986   -0.2428 O   0  0  0  0  0  0  0  0  0  0  0  0
   29.5940   36.6363    1.1277 O   0  0  0  0  0  0  0  0  0  0  0  0
   25.1397   36.7362   -1.6618 O   0  0  0  0  0  0  0  0  0  0  0  0
   32.1599   32.8055    0.3863 H   0  0  0  0  0  0  0  0  0  0  0  0
   28.7941   37.1890    0.9662 H   0  0  0  0  0  0  0  0  0  0  0  0
   24.4231   36.3153   -2.1656 H   0  0  0  0  0  0  0  0  0  0  0  0
   24.6070   33.0775   -3.0818 C   0  0  0  0  0  0  0  0  0  0  0  0
   23.6810   32.6527   -4.0400 C   0  0  0  0  0  0  0  0  0  0  0  0
   23.4599   33.4426   -5.1603 C   0  0  0  0  0  0  0  0  0  0  0  0
   24.1444   34.6453   -5.3197 C   0  0  0  0  0  0  0  0  0  0  0  0
   25.0660   35.0758   -4.3741 C   0  0  0  0  0  0  0  0  0  0  0  0
   25.3147   34.2829   -3.2475 C   0  0  0  0  0  0  0  0  0  0  0  0
   23.9173   35.4156   -6.4241 O   0  0  0  0  0  0  0  0  0  0  0  0
   22.5781   33.0788   -6.1390 O   0  0  0  0  0  0  0  0  0  0  0  0
   23.2403   34.9265   -6.9335 H   0  0  0  0  0  0  0  0  0  0  0  0
   22.1849   32.2228   -5.8955 H   0  0  0  0  0  0  0  0  0  0  0  0
 18 19  2  0  0  0
 19 20  1  0  0  0
 20 21  2  0  0  0
 21 22  1  0  0  0
 22 23  2  0  0  0
 18 23  1  0  0  0
 23  1  1  0  0  0
  1  2  2  0  0  0
  2  3  1  0  0  0
  3  4  2  0  0  0
  3  5  1  0  0  0
  5  6  2  0  0  0
  6  7  1  0  0  0
  7  8  2  0  0  0
  8  9  1  0  0  0
  9 10  2  0  0  0
  5 10  1  0  0  0
 10 11  1  0  0  0
  1 11  1  0  0  0
  8 12  1  0  0  0
  6 13  1  0  0  0
  2 14  1  0  0  0
 21 24  1  0  0  0
 20 25  1  0  0  0
 12 15  1  0  0  0
 13 16  1  0  0  0
 14 17  1  0  0  0
 24 26  1  0  0  0
 25 27  1  0  0  0
M  END
> <minimizedAffinity>
-5.53067

$$$$
Quercetin


 27 29  0  0  0  0  0  0  0  0999 V2000
   26.6187   35.2193   -2.6537 C   0  0  0  0  0  0  0  0  0  0  0  0
   26.7024   33.8737   -2.6174 C   0  0  0  0  0  0  0  0  0  0  0  0
   25.6979   33.0943   -3.3903 C   0  0  0  0  0  0  0  0  0  0  0  0
   25.6956   31.8664   -3.4388 O   0  0  0  0  0  0  0  0  0  0  0  0
   24.6763   33.8540   -4.1200 C   0  0  0  0  0  0  0  0  0  0  0  0
   23.6930   33.2130   -4.8837 C   0  0  0  0  0  0  0  0  0  0  0  0
   22.7329   33.9576   -5.5641 C   0  0  0  0  0  0  0  0  0  0  0  0
   22.7630   35.3460   -5.4724 C   0  0  0  0  0  0  0  0  0  0  0  0
   23.7362   35.9949   -4.7168 C   0  0  0  0  0  0  0  0  0  0  0  0
   24.6980   35.2433   -4.0412 C   0  0  0  0  0  0  0  0  0  0  0  0
   25.6394   35.9344   -3.3229 O   0  0  0  0  0  0  0  0  0  0  0  0
   21.8441   36.1178   -6.1199 O   0  0  0  0  0  0  0  0  0  0  0  0
   23.6157   31.8515   -5.0091 O   0  0  0  0  0  0  0  0  0  0  0  0
   27.6554   33.1608   -1.9111 O   0  0  0  0  0  0  0  0  0  0  0  0
   21.2321   35.5372   -6.6039 H   0  0  0  0  0  0  0  0  0  0  0  0
   24.3440   31.4537   -4.4775 H   0  0  0  0  0  0  0  0  0  0  0  0
   28.1328   33.7657   -1.3189 H   0  0  0  0  0  0  0  0  0  0  0  0
   28.9209   36.1659   -2.4199 C   0  0  0  0  0  0  0  0  0  0  0  0
   29.8596   36.9584   -1.7514 C   0  0  0  0  0  0  0  0  0  0  0  0
   29.4605   37.6767   -0.6323 C   0  0  0  0  0  0  0  0  0  0  0  0
   28.1409   37.6151   -0.1902 C   0  0  0  0  0  0  0  0  0  0  0  0
   27.2013   36.8311   -0.8468 C   0  0  0  0  0  0  0  0  0  0  0  0
   27.5908   36.0859   -1.9660 C   0  0  0  0  0  0  0  0  0  0  0  0
   27.7586   38.3279    0.9101 O   0  0  0  0  0  0  0  0  0  0  0  0
   30.3310   38.4596    0.0728 O   0  0  0  0  0  0  0  0  0  0  0  0
   28.5674   38.7992    1.1945 H   0  0  0  0  0  0  0  0  0  0  0  0
   31.2070   38.3991   -0.3462 H   0  0  0  0  0  0  0  0  0  0  0  0
 18 19  2  0  0  0
 19 20  1  0  0  0
 20 21  2  0  0  0
 21 22  1  0  0  0
 22 23  2  0  0  0
 18 23  1  0  0  0
 23  1  1  0  0  0
  1  2  2  0  0  0
  2  3  1  0  0  0
  3  4  2  0  0  0
  3  5  1  0  0  0
  5  6  2  0  0  0
  6  7  1  0  0  0
  7  8  2  0  0  0
  8  9  1  0  0  0
  9 10  2  0  0  0
  5 10  1  0  0  0
 10 11  1  0  0  0
  1 11  1  0  0  0
  8 12  1  0  0  0
  6 13  1  0  0  0
  2 14  1  0  0  0
 21 24  1  0  0  0
 20 25  1  0  0  0
 12 15  1  0  0  0
 13 16  1  0  0  0
 14 17  1  0  0  0
 24 26  1  0  0  0
 25 27  1  0  0  0
M  END
> <minimizedAffinity>
-5.37999

$$$$
