Quercetin


 27 29  0  0  0  0  0  0  0  0999 V2000
   24.9566   25.0159   21.2472 C   0  0  0  0  0  0  0  0  0  0  0  0
   24.6341   23.7304   21.4974 C   0  0  0  0  0  0  0  0  0  0  0  0
   25.1746   22.6881   20.5835 C   0  0  0  0  0  0  0  0  0  0  0  0
   24.9565   21.4880   20.7324 O   0  0  0  0  0  0  0  0  0  0  0  0
   26.0050   23.1440   19.4628 C   0  0  0  0  0  0  0  0  0  0  0  0
   26.5675   22.2403   18.5529 C   0  0  0  0  0  0  0  0  0  0  0  0
   27.3493   22.6995   17.4959 C   0  0  0  0  0  0  0  0  0  0  0  0
   27.5613   24.0679   17.3555 C   0  0  0  0  0  0  0  0  0  0  0  0
   27.0080   24.9762   18.2543 C   0  0  0  0  0  0  0  0  0  0  0  0
   26.2294   24.5094   19.3137 C   0  0  0  0  0  0  0  0  0  0  0  0
   25.7202   25.4467   20.1750 O   0  0  0  0  0  0  0  0  0  0  0  0
   28.3186   24.5654   16.3367 O   0  0  0  0  0  0  0  0  0  0  0  0
   26.3920   20.8851   18.6425 O   0  0  0  0  0  0  0  0  0  0  0  0
   23.8336   23.3068   22.5439 O   0  0  0  0  0  0  0  0  0  0  0  0
   28.6378   23.8252   15.7927 H   0  0  0  0  0  0  0  0  0  0  0  0
   25.8201   20.7019   19.4239 H   0  0  0  0  0  0  0  0  0  0  0  0
   23.4081   24.0786   22.9533 H   0  0  0  0  0  0  0  0  0  0  0  0
   25.3094   26.5298   23.2053 C   0  0  0  0  0  0  0  0  0  0  0  0
   24.8824   27.5533   24.0574 C   0  0  0  0  0  0  0  0  0  0  0  0
   23.6633   28.1706   23.8114 C   0  0  0  0  0  0  0  0  0  0  0  0
   22.8838   27.7811   22.7246 C   0  0  0  0  0  0  0  0  0  0  0  0
   23.2988   26.7658   21.8727 C   0  0  0  0  0  0  0  0  0  0  0  0
   24.5166   26.1201   22.1166 C   0  0  0  0  0  0  0  0  0  0  0  0
   21.6877   28.3970   22.4904 O   0  0  0  0  0  0  0  0  0  0  0  0
   23.1831   29.1681   24.6128 O   0  0  0  0  0  0  0  0  0  0  0  0
   21.6105   29.0676   23.1985 H   0  0  0  0  0  0  0  0  0  0  0  0
   23.8262   29.3259   25.3257 H   0  0  0  0  0  0  0  0  0  0  0  0
 18 19  2  0  0  0
 19 20  1  0  0  0
 20 21  2  0  0  0
 21 22  1  0  0  0
 22 23  2  0  0  0
 18 23  1  0  0  0
 23  1  1  0  0  0
  1  2  2  0  0  0
  2  3  1  0  0  0
  3  4  2  0  0  0
  3  5  1  0  0  0
  5  6  2  0  0  0
  6  7  1  0  0  0
  7  8  2  0  0  0
  8  9  1  0  0  0
  9 10  2  0  0  0
  5 10  1  0  0  0
 10 11  1  0  0  0
  1 11  1  0  0  0
  8 12  1  0  0  0
  6 13  1  0  0  0
  2 14  1  0  0  0
 21 24  1  0  0  0
 20 25  1  0  0  0
 12 15  1  0  0  0
 13 16  1  0  0  0
 14 17  1  0  0  0
 24 26  1  0  0  0
 25 27  1  0  0  0
M  END
> <minimizedAffinity>
-6.20913

$$$$
Quercetin


 27 29  0  0  0  0  0  0  0  0999 V2000
   24.2707   25.6861   22.9979 C   0  0  0  0  0  0  0  0  0  0  0  0
   23.4651   25.4695   24.0576 C   0  0  0  0  0  0  0  0  0  0  0  0
   23.2168   26.6061   24.9852 C   0  0  0  0  0  0  0  0  0  0  0  0
   22.4859   26.5204   25.9693 O   0  0  0  0  0  0  0  0  0  0  0  0
   23.8874   27.8761   24.6843 C   0  0  0  0  0  0  0  0  0  0  0  0
   23.7107   29.0068   25.4912 C   0  0  0  0  0  0  0  0  0  0  0  0
   24.3615   30.1994   25.1852 C   0  0  0  0  0  0  0  0  0  0  0  0
   25.1909   30.2505   24.0687 C   0  0  0  0  0  0  0  0  0  0  0  0
   25.3740   29.1331   23.2582 C   0  0  0  0  0  0  0  0  0  0  0  0
   24.7156   27.9427   23.5678 C   0  0  0  0  0  0  0  0  0  0  0  0
   24.9223   26.8782   22.7288 O   0  0  0  0  0  0  0  0  0  0  0  0
   25.8498   31.3949   23.7289 O   0  0  0  0  0  0  0  0  0  0  0  0
   22.9076   29.0135   26.6005 O   0  0  0  0  0  0  0  0  0  0  0  0
   22.8508   24.2639   24.3489 O   0  0  0  0  0  0  0  0  0  0  0  0
   25.6307   32.0869   24.3761 H   0  0  0  0  0  0  0  0  0  0  0  0
   22.5183   28.1138   26.7014 H   0  0  0  0  0  0  0  0  0  0  0  0
   23.2250   23.5695   23.7813 H   0  0  0  0  0  0  0  0  0  0  0  0
   23.5668   24.3039   21.0371 C   0  0  0  0  0  0  0  0  0  0  0  0
   23.8033   23.2920   20.1011 C   0  0  0  0  0  0  0  0  0  0  0  0
   25.0230   22.6289   20.1190 C   0  0  0  0  0  0  0  0  0  0  0  0
   25.9991   22.9759   21.0503 C   0  0  0  0  0  0  0  0  0  0  0  0
   25.7740   23.9790   21.9840 C   0  0  0  0  0  0  0  0  0  0  0  0
   24.5429   24.6454   21.9920 C   0  0  0  0  0  0  0  0  0  0  0  0
   27.1963   22.3189   21.0571 O   0  0  0  0  0  0  0  0  0  0  0  0
   25.3123   21.6230   19.2402 O   0  0  0  0  0  0  0  0  0  0  0  0
   27.1307   21.6749   20.3237 H   0  0  0  0  0  0  0  0  0  0  0  0
   24.5417   21.4899   18.6612 H   0  0  0  0  0  0  0  0  0  0  0  0
 18 19  2  0  0  0
 19 20  1  0  0  0
 20 21  2  0  0  0
 21 22  1  0  0  0
 22 23  2  0  0  0
 18 23  1  0  0  0
 23  1  1  0  0  0
  1  2  2  0  0  0
  2  3  1  0  0  0
  3  4  2  0  0  0
  3  5  1  0  0  0
  5  6  2  0  0  0
  6  7  1  0  0  0
  7  8  2  0  0  0
  8  9  1  0  0  0
  9 10  2  0  0  0
  5 10  1  0  0  0
 10 11  1  0  0  0
  1 11  1  0  0  0
  8 12  1  0  0  0
  6 13  1  0  0  0
  2 14  1  0  0  0
 21 24  1  0  0  0
 20 25  1  0  0  0
 12 15  1  0  0  0
 13 16  1  0  0  0
 14 17  1  0  0  0
 24 26  1  0  0  0
 25 27  1  0  0  0
M  END
> <minimizedAffinity>
-6.19549

$$$$
Quercetin


 27 29  0  0  0  0  0  0  0  0999 V2000
   24.9504   25.1375   21.9641 C   0  0  0  0  0  0  0  0  0  0  0  0
   23.7517   25.2660   22.5687 C   0  0  0  0  0  0  0  0  0  0  0  0
   23.4759   26.5307   23.3025 C   0  0  0  0  0  0  0  0  0  0  0  0
   22.4106   26.7561   23.8720 O   0  0  0  0  0  0  0  0  0  0  0  0
   24.5431   27.5375   23.3284 C   0  0  0  0  0  0  0  0  0  0  0  0
   24.3776   28.7635   23.9846 C   0  0  0  0  0  0  0  0  0  0  0  0
   25.4077   29.7005   23.9969 C   0  0  0  0  0  0  0  0  0  0  0  0
   26.6033   29.4006   23.3507 C   0  0  0  0  0  0  0  0  0  0  0  0
   26.7795   28.1852   22.6941 C   0  0  0  0  0  0  0  0  0  0  0  0
   25.7421   27.2525   22.6817 C   0  0  0  0  0  0  0  0  0  0  0  0
   25.9658   26.0785   22.0100 O   0  0  0  0  0  0  0  0  0  0  0  0
   27.6407   30.2853   23.3358 O   0  0  0  0  0  0  0  0  0  0  0  0
   23.2243   29.1112   24.6359 O   0  0  0  0  0  0  0  0  0  0  0  0
   22.7556   24.3052   22.5588 O   0  0  0  0  0  0  0  0  0  0  0  0
   27.3797   31.0828   23.8274 H   0  0  0  0  0  0  0  0  0  0  0  0
   22.5891   28.3622   24.5536 H   0  0  0  0  0  0  0  0  0  0  0  0
   23.1165   23.4747   22.2062 H   0  0  0  0  0  0  0  0  0  0  0  0
   26.3708   23.1182   21.5697 C   0  0  0  0  0  0  0  0  0  0  0  0
   26.7394   22.0082   20.8028 C   0  0  0  0  0  0  0  0  0  0  0  0
   26.0345   21.7283   19.6398 C   0  0  0  0  0  0  0  0  0  0  0  0
   24.9694   22.5372   19.2505 C   0  0  0  0  0  0  0  0  0  0  0  0
   24.5956   23.6417   20.0048 C   0  0  0  0  0  0  0  0  0  0  0  0
   25.3070   23.9493   21.1706 C   0  0  0  0  0  0  0  0  0  0  0  0
   24.2813   22.2510   18.1061 O   0  0  0  0  0  0  0  0  0  0  0  0
   26.3518   20.6667   18.8397 O   0  0  0  0  0  0  0  0  0  0  0  0
   24.7085   21.4444   17.7542 H   0  0  0  0  0  0  0  0  0  0  0  0
   27.1118   20.2027   19.2320 H   0  0  0  0  0  0  0  0  0  0  0  0
 18 19  2  0  0  0
 19 20  1  0  0  0
 20 21  2  0  0  0
 21 22  1  0  0  0
 22 23  2  0  0  0
 18 23  1  0  0  0
 23  1  1  0  0  0
  1  2  2  0  0  0
  2  3  1  0  0  0
  3  4  2  0  0  0
  3  5  1  0  0  0
  5  6  2  0  0  0
  6  7  1  0  0  0
  7  8  2  0  0  0
  8  9  1  0  0  0
  9 10  2  0  0  0
  5 10  1  0  0  0
 10 11  1  0  0  0
  1 11  1  0  0  0
  8 12  1  0  0  0
  6 13  1  0  0  0
  2 14  1  0  0  0
 21 24  1  0  0  0
 20 25  1  0  0  0
 12 15  1  0  0  0
 13 16  1  0  0  0
 14 17  1  0  0  0
 24 26  1  0  0  0
 25 27  1  0  0  0
M  END
> <minimizedAffinity>
-6.00936

$$$$
Quercetin


 27 29  0  0  0  0  0  0  0  0999 V2000
   25.4099   24.2239   21.1782 C   0  0  0  0  0  0  0  0  0  0  0  0
   26.4728   23.6620   21.7895 C   0  0  0  0  0  0  0  0  0  0  0  0
   27.1408   22.5193   21.1099 C   0  0  0  0  0  0  0  0  0  0  0  0
   28.1263   21.9485   21.5717 O   0  0  0  0  0  0  0  0  0  0  0  0
   26.5761   22.0771   19.8298 C   0  0  0  0  0  0  0  0  0  0  0  0
   27.1383   21.0165   19.1086 C   0  0  0  0  0  0  0  0  0  0  0  0
   26.5807   20.6144   17.8975 C   0  0  0  0  0  0  0  0  0  0  0  0
   25.4567   21.2792   17.4160 C   0  0  0  0  0  0  0  0  0  0  0  0
   24.8892   22.3357   18.1237 C   0  0  0  0  0  0  0  0  0  0  0  0
   25.4552   22.7365   19.3342 C   0  0  0  0  0  0  0  0  0  0  0  0
   24.8631   23.7898   19.9821 O   0  0  0  0  0  0  0  0  0  0  0  0
   24.8749   20.9216   16.2358 O   0  0  0  0  0  0  0  0  0  0  0  0
   28.2425   20.3275   19.5343 O   0  0  0  0  0  0  0  0  0  0  0  0
   26.9896   24.0694   23.0070 O   0  0  0  0  0  0  0  0  0  0  0  0
   25.3715   20.1776   15.8541 H   0  0  0  0  0  0  0  0  0  0  0  0
   28.5267   20.7087   20.3975 H   0  0  0  0  0  0  0  0  0  0  0  0
   26.3718   24.6932   23.4236 H   0  0  0  0  0  0  0  0  0  0  0  0
   25.4305   26.4407   22.3340 C   0  0  0  0  0  0  0  0  0  0  0  0
   24.7692   27.5350   22.9010 C   0  0  0  0  0  0  0  0  0  0  0  0
   23.3820   27.5780   22.8630 C   0  0  0  0  0  0  0  0  0  0  0  0
   22.6623   26.5496   22.2588 C   0  0  0  0  0  0  0  0  0  0  0  0
   23.3094   25.4587   21.6932 C   0  0  0  0  0  0  0  0  0  0  0  0
   24.7068   25.3902   21.7389 C   0  0  0  0  0  0  0  0  0  0  0  0
   21.2982   26.6035   22.2246 O   0  0  0  0  0  0  0  0  0  0  0  0
   22.6753   28.6123   23.4094 O   0  0  0  0  0  0  0  0  0  0  0  0
   21.0714   27.4461   22.6669 H   0  0  0  0  0  0  0  0  0  0  0  0
   23.3056   29.2446   23.7960 H   0  0  0  0  0  0  0  0  0  0  0  0
 18 19  2  0  0  0
 19 20  1  0  0  0
 20 21  2  0  0  0
 21 22  1  0  0  0
 22 23  2  0  0  0
 18 23  1  0  0  0
 23  1  1  0  0  0
  1  2  2  0  0  0
  2  3  1  0  0  0
  3  4  2  0  0  0
  3  5  1  0  0  0
  5  6  2  0  0  0
  6  7  1  0  0  0
  7  8  2  0  0  0
  8  9  1  0  0  0
  9 10  2  0  0  0
  5 10  1  0  0  0
 10 11  1  0  0  0
  1 11  1  0  0  0
  8 12  1  0  0  0
  6 13  1  0  0  0
  2 14  1  0  0  0
 21 24  1  0  0  0
 20 25  1  0  0  0
 12 15  1  0  0  0
 13 16  1  0  0  0
 14 17  1  0  0  0
 24 26  1  0  0  0
 25 27  1  0  0  0
M  END
> <minimizedAffinity>
-5.88614

$$$$
Quercetin


 27 29  0  0  0  0  0  0  0  0999 V2000
   24.8490   25.3020   22.3496 C   0  0  0  0  0  0  0  0  0  0  0  0
   23.7302   25.3152   23.1027 C   0  0  0  0  0  0  0  0  0  0  0  0
   23.4610   26.5253   23.9255 C   0  0  0  0  0  0  0  0  0  0  0  0
   22.4629   26.6466   24.6320 O   0  0  0  0  0  0  0  0  0  0  0  0
   24.4494   27.6084   23.8689 C   0  0  0  0  0  0  0  0  0  0  0  0
   24.2823   28.7914   24.5993 C   0  0  0  0  0  0  0  0  0  0  0  0
   25.2373   29.8027   24.5304 C   0  0  0  0  0  0  0  0  0  0  0  0
   26.3598   29.6200   23.7282 C   0  0  0  0  0  0  0  0  0  0  0  0
   26.5368   28.4484   22.9966 C   0  0  0  0  0  0  0  0  0  0  0  0
   25.5742   27.4410   23.0665 C   0  0  0  0  0  0  0  0  0  0  0  0
   25.7933   26.3147   22.3161 O   0  0  0  0  0  0  0  0  0  0  0  0
   27.3222   30.5808   23.6289 O   0  0  0  0  0  0  0  0  0  0  0  0
   23.1989   29.0246   25.4038 O   0  0  0  0  0  0  0  0  0  0  0  0
   22.8109   24.2828   23.1687 O   0  0  0  0  0  0  0  0  0  0  0  0
   27.0700   31.3362   24.1871 H   0  0  0  0  0  0  0  0  0  0  0  0
   22.6126   28.2334   25.3639 H   0  0  0  0  0  0  0  0  0  0  0  0
   23.1818   23.4966   22.7343 H   0  0  0  0  0  0  0  0  0  0  0  0
   24.2851   23.7643   20.4607 C   0  0  0  0  0  0  0  0  0  0  0  0
   24.5805   22.6737   19.6364 C   0  0  0  0  0  0  0  0  0  0  0  0
   25.7831   22.0025   19.8117 C   0  0  0  0  0  0  0  0  0  0  0  0
   26.6852   22.4181   20.7885 C   0  0  0  0  0  0  0  0  0  0  0  0
   26.4013   23.4996   21.6122 C   0  0  0  0  0  0  0  0  0  0  0  0
   25.1852   24.1765   21.4614 C   0  0  0  0  0  0  0  0  0  0  0  0
   27.8664   21.7522   20.9505 O   0  0  0  0  0  0  0  0  0  0  0  0
   26.1264   20.9222   19.0481 O   0  0  0  0  0  0  0  0  0  0  0  0
   27.8503   21.0485   20.2711 H   0  0  0  0  0  0  0  0  0  0  0  0
   25.4038   20.7478   18.4203 H   0  0  0  0  0  0  0  0  0  0  0  0
 18 19  2  0  0  0
 19 20  1  0  0  0
 20 21  2  0  0  0
 21 22  1  0  0  0
 22 23  2  0  0  0
 18 23  1  0  0  0
 23  1  1  0  0  0
  1  2  2  0  0  0
  2  3  1  0  0  0
  3  4  2  0  0  0
  3  5  1  0  0  0
  5  6  2  0  0  0
  6  7  1  0  0  0
  7  8  2  0  0  0
  8  9  1  0  0  0
  9 10  2  0  0  0
  5 10  1  0  0  0
 10 11  1  0  0  0
  1 11  1  0  0  0
  8 12  1  0  0  0
  6 13  1  0  0  0
  2 14  1  0  0  0
 21 24  1  0  0  0
 20 25  1  0  0  0
 12 15  1  0  0  0
 13 16  1  0  0  0
 14 17  1  0  0  0
 24 26  1  0  0  0
 25 27  1  0  0  0
M  END
> <minimizedAffinity>
-5.87061

$$$$
