Quercetin


 27 29  0  0  0  0  0  0  0  0999 V2000
   22.5625   10.9115   26.5786 C   0  0  0  0  0  0  0  0  0  0  0  0
   21.8439   12.0435   26.7241 C   0  0  0  0  0  0  0  0  0  0  0  0
   21.8416   12.6978   28.0604 C   0  0  0  0  0  0  0  0  0  0  0  0
   21.2351   13.7406   28.2948 O   0  0  0  0  0  0  0  0  0  0  0  0
   22.6096   12.0463   29.1276 C   0  0  0  0  0  0  0  0  0  0  0  0
   22.6774   12.5884   30.4169 C   0  0  0  0  0  0  0  0  0  0  0  0
   23.4108   11.9482   31.4127 C   0  0  0  0  0  0  0  0  0  0  0  0
   24.0727   10.7621   31.1091 C   0  0  0  0  0  0  0  0  0  0  0  0
   24.0134   10.2136   29.8305 C   0  0  0  0  0  0  0  0  0  0  0  0
   23.2805   10.8623   28.8363 C   0  0  0  0  0  0  0  0  0  0  0  0
   23.2669   10.2845   27.5930 O   0  0  0  0  0  0  0  0  0  0  0  0
   24.8027   10.0985   32.0504 O   0  0  0  0  0  0  0  0  0  0  0  0
   22.0467   13.7512   30.7713 O   0  0  0  0  0  0  0  0  0  0  0  0
   21.1042   12.6435   25.7200 O   0  0  0  0  0  0  0  0  0  0  0  0
   24.7564   10.5910   32.8877 H   0  0  0  0  0  0  0  0  0  0  0  0
   21.5655   14.0910   29.9812 H   0  0  0  0  0  0  0  0  0  0  0  0
   21.0442   12.0380   24.9622 H   0  0  0  0  0  0  0  0  0  0  0  0
   23.8682   10.2683   24.5459 C   0  0  0  0  0  0  0  0  0  0  0  0
   23.9703    9.6365   23.3023 C   0  0  0  0  0  0  0  0  0  0  0  0
   22.8752    8.9409   22.8077 C   0  0  0  0  0  0  0  0  0  0  0  0
   21.6966    8.8664   23.5466 C   0  0  0  0  0  0  0  0  0  0  0  0
   21.5850    9.4904   24.7823 C   0  0  0  0  0  0  0  0  0  0  0  0
   22.6733   10.2114   25.2877 C   0  0  0  0  0  0  0  0  0  0  0  0
   20.6265    8.1772   23.0517 O   0  0  0  0  0  0  0  0  0  0  0  0
   22.9054    8.3124   21.5946 O   0  0  0  0  0  0  0  0  0  0  0  0
   20.9332    7.8255   22.1919 H   0  0  0  0  0  0  0  0  0  0  0  0
   23.7817    8.4551   21.1965 H   0  0  0  0  0  0  0  0  0  0  0  0
 18 19  2  0  0  0
 19 20  1  0  0  0
 20 21  2  0  0  0
 21 22  1  0  0  0
 22 23  2  0  0  0
 18 23  1  0  0  0
 23  1  1  0  0  0
  1  2  2  0  0  0
  2  3  1  0  0  0
  3  4  2  0  0  0
  3  5  1  0  0  0
  5  6  2  0  0  0
  6  7  1  0  0  0
  7  8  2  0  0  0
  8  9  1  0  0  0
  9 10  2  0  0  0
  5 10  1  0  0  0
 10 11  1  0  0  0
  1 11  1  0  0  0
  8 12  1  0  0  0
  6 13  1  0  0  0
  2 14  1  0  0  0
 21 24  1  0  0  0
 20 25  1  0  0  0
 12 15  1  0  0  0
 13 16  1  0  0  0
 14 17  1  0  0  0
 24 26  1  0  0  0
 25 27  1  0  0  0
M  END
> <minimizedAffinity>
-6.40586

$$$$
Quercetin


 27 29  0  0  0  0  0  0  0  0999 V2000
   22.7346   10.3795   25.6957 C   0  0  0  0  0  0  0  0  0  0  0  0
   21.7485    9.5647   25.2680 C   0  0  0  0  0  0  0  0  0  0  0  0
   21.9067    8.9233   23.9348 C   0  0  0  0  0  0  0  0  0  0  0  0
   21.0769    8.1513   23.4600 O   0  0  0  0  0  0  0  0  0  0  0  0
   23.1209    9.2444   23.1759 C   0  0  0  0  0  0  0  0  0  0  0  0
   23.3665    8.6849   21.9159 C   0  0  0  0  0  0  0  0  0  0  0  0
   24.5254    9.0089   21.2150 C   0  0  0  0  0  0  0  0  0  0  0  0
   25.4336    9.8975   21.7828 C   0  0  0  0  0  0  0  0  0  0  0  0
   25.2009   10.4598   23.0353 C   0  0  0  0  0  0  0  0  0  0  0  0
   24.0401   10.1277   23.7343 C   0  0  0  0  0  0  0  0  0  0  0  0
   23.8683   10.7008   24.9678 O   0  0  0  0  0  0  0  0  0  0  0  0
   26.5818   10.2458   21.1350 O   0  0  0  0  0  0  0  0  0  0  0  0
   22.5086    7.8061   21.3099 O   0  0  0  0  0  0  0  0  0  0  0  0
   20.5953    9.2807   25.9786 O   0  0  0  0  0  0  0  0  0  0  0  0
   26.6128    9.7822   20.2806 H   0  0  0  0  0  0  0  0  0  0  0  0
   21.7363    7.6717   21.9073 H   0  0  0  0  0  0  0  0  0  0  0  0
   20.5301    9.8855   26.7365 H   0  0  0  0  0  0  0  0  0  0  0  0
   23.2879   10.3963   28.1338 C   0  0  0  0  0  0  0  0  0  0  0  0
   23.2302   10.9854   29.4010 C   0  0  0  0  0  0  0  0  0  0  0  0
   22.5914   12.2095   29.5468 C   0  0  0  0  0  0  0  0  0  0  0  0
   22.0262   12.8443   28.4432 C   0  0  0  0  0  0  0  0  0  0  0  0
   22.0780   12.2677   27.1808 C   0  0  0  0  0  0  0  0  0  0  0  0
   22.7021   11.0251   27.0189 C   0  0  0  0  0  0  0  0  0  0  0  0
   21.4027   14.0494   28.5976 O   0  0  0  0  0  0  0  0  0  0  0  0
   22.4895   12.8321   30.7592 O   0  0  0  0  0  0  0  0  0  0  0  0
   21.4948   14.2569   29.5492 H   0  0  0  0  0  0  0  0  0  0  0  0
   22.9205   12.2730   31.4288 H   0  0  0  0  0  0  0  0  0  0  0  0
 18 19  2  0  0  0
 19 20  1  0  0  0
 20 21  2  0  0  0
 21 22  1  0  0  0
 22 23  2  0  0  0
 18 23  1  0  0  0
 23  1  1  0  0  0
  1  2  2  0  0  0
  2  3  1  0  0  0
  3  4  2  0  0  0
  3  5  1  0  0  0
  5  6  2  0  0  0
  6  7  1  0  0  0
  7  8  2  0  0  0
  8  9  1  0  0  0
  9 10  2  0  0  0
  5 10  1  0  0  0
 10 11  1  0  0  0
  1 11  1  0  0  0
  8 12  1  0  0  0
  6 13  1  0  0  0
  2 14  1  0  0  0
 21 24  1  0  0  0
 20 25  1  0  0  0
 12 15  1  0  0  0
 13 16  1  0  0  0
 14 17  1  0  0  0
 24 26  1  0  0  0
 25 27  1  0  0  0
M  END
> <minimizedAffinity>
-6.21382

$$$$
Quercetin


 27 29  0  0  0  0  0  0  0  0999 V2000
   23.4972   12.7369   27.8458 C   0  0  0  0  0  0  0  0  0  0  0  0
   22.9385   13.5461   28.7689 C   0  0  0  0  0  0  0  0  0  0  0  0
   23.6649   14.7933   29.1300 C   0  0  0  0  0  0  0  0  0  0  0  0
   23.2355   15.6068   29.9449 O   0  0  0  0  0  0  0  0  0  0  0  0
   24.9498   15.0378   28.4647 C   0  0  0  0  0  0  0  0  0  0  0  0
   25.7048   16.1870   28.7295 C   0  0  0  0  0  0  0  0  0  0  0  0
   26.9228   16.3933   28.0867 C   0  0  0  0  0  0  0  0  0  0  0  0
   27.3795   15.4411   27.1802 C   0  0  0  0  0  0  0  0  0  0  0  0
   26.6374   14.2947   26.9079 C   0  0  0  0  0  0  0  0  0  0  0  0
   25.4158   14.0961   27.5520 C   0  0  0  0  0  0  0  0  0  0  0  0
   24.7216   12.9567   27.2368 O   0  0  0  0  0  0  0  0  0  0  0  0
   28.5659   15.5983   26.5267 O   0  0  0  0  0  0  0  0  0  0  0  0
   25.3046   17.1557   29.6109 O   0  0  0  0  0  0  0  0  0  0  0  0
   21.7361   13.3013   29.4090 O   0  0  0  0  0  0  0  0  0  0  0  0
   28.9721   16.4350   26.8110 H   0  0  0  0  0  0  0  0  0  0  0  0
   24.4386   16.8819   29.9935 H   0  0  0  0  0  0  0  0  0  0  0  0
   21.4542   12.3904   29.2217 H   0  0  0  0  0  0  0  0  0  0  0  0
   23.0360   10.2893   28.0626 C   0  0  0  0  0  0  0  0  0  0  0  0
   22.4443    9.1071   27.6062 C   0  0  0  0  0  0  0  0  0  0  0  0
   21.6486    9.1469   26.4691 C   0  0  0  0  0  0  0  0  0  0  0  0
   21.4362   10.3504   25.8005 C   0  0  0  0  0  0  0  0  0  0  0  0
   22.0194   11.5297   26.2455 C   0  0  0  0  0  0  0  0  0  0  0  0
   22.8394   11.5044   27.3798 C   0  0  0  0  0  0  0  0  0  0  0  0
   20.6496   10.3786   24.6846 O   0  0  0  0  0  0  0  0  0  0  0  0
   21.0520    8.0257   25.9643 O   0  0  0  0  0  0  0  0  0  0  0  0
   20.3497    9.4547   24.5684 H   0  0  0  0  0  0  0  0  0  0  0  0
   21.2935    7.2695   26.5269 H   0  0  0  0  0  0  0  0  0  0  0  0
 18 19  2  0  0  0
 19 20  1  0  0  0
 20 21  2  0  0  0
 21 22  1  0  0  0
 22 23  2  0  0  0
 18 23  1  0  0  0
 23  1  1  0  0  0
  1  2  2  0  0  0
  2  3  1  0  0  0
  3  4  2  0  0  0
  3  5  1  0  0  0
  5  6  2  0  0  0
  6  7  1  0  0  0
  7  8  2  0  0  0
  8  9  1  0  0  0
  9 10  2  0  0  0
  5 10  1  0  0  0
 10 11  1  0  0  0
  1 11  1  0  0  0
  8 12  1  0  0  0
  6 13  1  0  0  0
  2 14  1  0  0  0
 21 24  1  0  0  0
 20 25  1  0  0  0
 12 15  1  0  0  0
 13 16  1  0  0  0
 14 17  1  0  0  0
 24 26  1  0  0  0
 25 27  1  0  0  0
M  END
> <minimizedAffinity>
-6.10221

$$$$
Quercetin


 27 29  0  0  0  0  0  0  0  0999 V2000
   23.2280    9.4848   26.4344 C   0  0  0  0  0  0  0  0  0  0  0  0
   23.6681    8.5927   27.3452 C   0  0  0  0  0  0  0  0  0  0  0  0
   23.7514    9.0325   28.7642 C   0  0  0  0  0  0  0  0  0  0  0  0
   24.1217    8.2939   29.6738 O   0  0  0  0  0  0  0  0  0  0  0  0
   23.3650   10.4165   29.0612 C   0  0  0  0  0  0  0  0  0  0  0  0
   23.4000   10.9227   30.3664 C   0  0  0  0  0  0  0  0  0  0  0  0
   23.0311   12.2413   30.6207 C   0  0  0  0  0  0  0  0  0  0  0  0
   22.6301   13.0485   29.5603 C   0  0  0  0  0  0  0  0  0  0  0  0
   22.5904   12.5563   28.2582 C   0  0  0  0  0  0  0  0  0  0  0  0
   22.9569   11.2331   28.0107 C   0  0  0  0  0  0  0  0  0  0  0  0
   22.8870   10.7981   26.7125 O   0  0  0  0  0  0  0  0  0  0  0  0
   22.2604   14.3458   29.7592 O   0  0  0  0  0  0  0  0  0  0  0  0
   23.7859   10.1745   31.4466 O   0  0  0  0  0  0  0  0  0  0  0  0
   24.0509    7.2943   27.0573 O   0  0  0  0  0  0  0  0  0  0  0  0
   22.3356   14.5515   30.7067 H   0  0  0  0  0  0  0  0  0  0  0  0
   24.0228    9.2734   31.1253 H   0  0  0  0  0  0  0  0  0  0  0  0
   24.1184    7.1874   26.0938 H   0  0  0  0  0  0  0  0  0  0  0  0
   24.1640    9.1570   24.1394 C   0  0  0  0  0  0  0  0  0  0  0  0
   24.0074    8.8649   22.7806 C   0  0  0  0  0  0  0  0  0  0  0  0
   22.7440    8.5466   22.3009 C   0  0  0  0  0  0  0  0  0  0  0  0
   21.6519    8.5093   23.1648 C   0  0  0  0  0  0  0  0  0  0  0  0
   21.7968    8.7979   24.5156 C   0  0  0  0  0  0  0  0  0  0  0  0
   23.0602    9.1388   25.0128 C   0  0  0  0  0  0  0  0  0  0  0  0
   20.4142    8.1923   22.6827 O   0  0  0  0  0  0  0  0  0  0  0  0
   22.5212    8.2634   20.9826 O   0  0  0  0  0  0  0  0  0  0  0  0
   20.5540    8.0255   21.7290 H   0  0  0  0  0  0  0  0  0  0  0  0
   23.3666    8.3341   20.5061 H   0  0  0  0  0  0  0  0  0  0  0  0
 18 19  2  0  0  0
 19 20  1  0  0  0
 20 21  2  0  0  0
 21 22  1  0  0  0
 22 23  2  0  0  0
 18 23  1  0  0  0
 23  1  1  0  0  0
  1  2  2  0  0  0
  2  3  1  0  0  0
  3  4  2  0  0  0
  3  5  1  0  0  0
  5  6  2  0  0  0
  6  7  1  0  0  0
  7  8  2  0  0  0
  8  9  1  0  0  0
  9 10  2  0  0  0
  5 10  1  0  0  0
 10 11  1  0  0  0
  1 11  1  0  0  0
  8 12  1  0  0  0
  6 13  1  0  0  0
  2 14  1  0  0  0
 21 24  1  0  0  0
 20 25  1  0  0  0
 12 15  1  0  0  0
 13 16  1  0  0  0
 14 17  1  0  0  0
 24 26  1  0  0  0
 25 27  1  0  0  0
M  END
> <minimizedAffinity>
-6.08256

$$$$
Quercetin


 27 29  0  0  0  0  0  0  0  0999 V2000
   23.0738   10.6623   25.3773 C   0  0  0  0  0  0  0  0  0  0  0  0
   21.7600   10.9245   25.5325 C   0  0  0  0  0  0  0  0  0  0  0  0
   21.3655   11.8953   26.5888 C   0  0  0  0  0  0  0  0  0  0  0  0
   20.1988   12.2174   26.8008 O   0  0  0  0  0  0  0  0  0  0  0  0
   22.4411   12.4804   27.3975 C   0  0  0  0  0  0  0  0  0  0  0  0
   22.1735   13.4104   28.4096 C   0  0  0  0  0  0  0  0  0  0  0  0
   23.2126   13.9482   29.1649 C   0  0  0  0  0  0  0  0  0  0  0  0
   24.5189   13.5470   28.9013 C   0  0  0  0  0  0  0  0  0  0  0  0
   24.7977   12.6236   27.8969 C   0  0  0  0  0  0  0  0  0  0  0  0
   23.7527   12.0918   27.1410 C   0  0  0  0  0  0  0  0  0  0  0  0
   24.0859   11.1967   26.1574 O   0  0  0  0  0  0  0  0  0  0  0  0
   25.5693   14.0448   29.6140 O   0  0  0  0  0  0  0  0  0  0  0  0
   20.9090   13.8405   28.7121 O   0  0  0  0  0  0  0  0  0  0  0  0
   20.7472   10.3546   24.7810 O   0  0  0  0  0  0  0  0  0  0  0  0
   25.2303   14.6727   30.2749 H   0  0  0  0  0  0  0  0  0  0  0  0
   20.2777   13.3801   28.1114 H   0  0  0  0  0  0  0  0  0  0  0  0
   21.1118    9.6219   24.2570 H   0  0  0  0  0  0  0  0  0  0  0  0
   23.8335   10.2388   23.0333 C   0  0  0  0  0  0  0  0  0  0  0  0
   24.2762    9.3782   22.0236 C   0  0  0  0  0  0  0  0  0  0  0  0
   24.4682    8.0352   22.3187 C   0  0  0  0  0  0  0  0  0  0  0  0
   24.2324    7.5567   23.6056 C   0  0  0  0  0  0  0  0  0  0  0  0
   23.7925    8.4030   24.6151 C   0  0  0  0  0  0  0  0  0  0  0  0
   23.5761    9.7564   24.3304 C   0  0  0  0  0  0  0  0  0  0  0  0
   24.4271    6.2344   23.8855 O   0  0  0  0  0  0  0  0  0  0  0  0
   24.8873    7.1401   21.3749 O   0  0  0  0  0  0  0  0  0  0  0  0
   24.7367    5.8449   23.0432 H   0  0  0  0  0  0  0  0  0  0  0  0
   25.0035    7.6135   20.5328 H   0  0  0  0  0  0  0  0  0  0  0  0
 18 19  2  0  0  0
 19 20  1  0  0  0
 20 21  2  0  0  0
 21 22  1  0  0  0
 22 23  2  0  0  0
 18 23  1  0  0  0
 23  1  1  0  0  0
  1  2  2  0  0  0
  2  3  1  0  0  0
  3  4  2  0  0  0
  3  5  1  0  0  0
  5  6  2  0  0  0
  6  7  1  0  0  0
  7  8  2  0  0  0
  8  9  1  0  0  0
  9 10  2  0  0  0
  5 10  1  0  0  0
 10 11  1  0  0  0
  1 11  1  0  0  0
  8 12  1  0  0  0
  6 13  1  0  0  0
  2 14  1  0  0  0
 21 24  1  0  0  0
 20 25  1  0  0  0
 12 15  1  0  0  0
 13 16  1  0  0  0
 14 17  1  0  0  0
 24 26  1  0  0  0
 25 27  1  0  0  0
M  END
> <minimizedAffinity>
-6.04716

$$$$
