Quercetin


 27 29  0  0  0  0  0  0  0  0999 V2000
   12.9334   16.8635   29.5555 C   0  0  0  0  0  0  0  0  0  0  0  0
   11.8093   17.0101   30.2862 C   0  0  0  0  0  0  0  0  0  0  0  0
   11.8796   16.6973   31.7392 C   0  0  0  0  0  0  0  0  0  0  0  0
   10.9193   16.8143   32.4969 O   0  0  0  0  0  0  0  0  0  0  0  0
   13.1687   16.2319   32.2634 C   0  0  0  0  0  0  0  0  0  0  0  0
   13.3392   15.9207   33.6181 C   0  0  0  0  0  0  0  0  0  0  0  0
   14.5725   15.4778   34.0893 C   0  0  0  0  0  0  0  0  0  0  0  0
   15.6312   15.3467   33.1955 C   0  0  0  0  0  0  0  0  0  0  0  0
   15.4742   15.6537   31.8463 C   0  0  0  0  0  0  0  0  0  0  0  0
   14.2373   16.1012   31.3814 C   0  0  0  0  0  0  0  0  0  0  0  0
   14.1429   16.4008   30.0468 O   0  0  0  0  0  0  0  0  0  0  0  0
   16.8571   14.9163   33.6092 O   0  0  0  0  0  0  0  0  0  0  0  0
   12.3335   16.0309   34.5411 O   0  0  0  0  0  0  0  0  0  0  0  0
   10.5902   17.4300   29.7834 O   0  0  0  0  0  0  0  0  0  0  0  0
   16.8218   14.7411   34.5652 H   0  0  0  0  0  0  0  0  0  0  0  0
   11.5241   16.3456   34.0751 H   0  0  0  0  0  0  0  0  0  0  0  0
   10.6286   17.4315   28.8124 H   0  0  0  0  0  0  0  0  0  0  0  0
   13.1657   16.1775   27.1626 C   0  0  0  0  0  0  0  0  0  0  0  0
   13.2537   16.4850   25.8011 C   0  0  0  0  0  0  0  0  0  0  0  0
   13.1539   17.8110   25.4017 C   0  0  0  0  0  0  0  0  0  0  0  0
   12.9584   18.8173   26.3449 C   0  0  0  0  0  0  0  0  0  0  0  0
   12.8699   18.5224   27.6992 C   0  0  0  0  0  0  0  0  0  0  0  0
   12.9868   17.1928   28.1211 C   0  0  0  0  0  0  0  0  0  0  0  0
   12.8588   20.1179   25.9407 O   0  0  0  0  0  0  0  0  0  0  0  0
   13.2439   18.1796   24.0887 O   0  0  0  0  0  0  0  0  0  0  0  0
   12.9416   20.0826   24.9666 H   0  0  0  0  0  0  0  0  0  0  0  0
   13.3846   17.3790   23.5540 H   0  0  0  0  0  0  0  0  0  0  0  0
 18 19  2  0  0  0
 19 20  1  0  0  0
 20 21  2  0  0  0
 21 22  1  0  0  0
 22 23  2  0  0  0
 18 23  1  0  0  0
 23  1  1  0  0  0
  1  2  2  0  0  0
  2  3  1  0  0  0
  3  4  2  0  0  0
  3  5  1  0  0  0
  5  6  2  0  0  0
  6  7  1  0  0  0
  7  8  2  0  0  0
  8  9  1  0  0  0
  9 10  2  0  0  0
  5 10  1  0  0  0
 10 11  1  0  0  0
  1 11  1  0  0  0
  8 12  1  0  0  0
  6 13  1  0  0  0
  2 14  1  0  0  0
 21 24  1  0  0  0
 20 25  1  0  0  0
 12 15  1  0  0  0
 13 16  1  0  0  0
 14 17  1  0  0  0
 24 26  1  0  0  0
 25 27  1  0  0  0
M  END
> <minimizedAffinity>
-7.96948

$$$$
Quercetin


 27 29  0  0  0  0  0  0  0  0999 V2000
   13.5154   16.7793   29.4221 C   0  0  0  0  0  0  0  0  0  0  0  0
   14.5206   15.9047   29.6308 C   0  0  0  0  0  0  0  0  0  0  0  0
   14.6118   15.2574   30.9673 C   0  0  0  0  0  0  0  0  0  0  0  0
   15.4773   14.4338   31.2552 O   0  0  0  0  0  0  0  0  0  0  0  0
   13.6071   15.6378   31.9668 C   0  0  0  0  0  0  0  0  0  0  0  0
   13.6023   15.0781   33.2504 C   0  0  0  0  0  0  0  0  0  0  0  0
   12.6393   15.4590   34.1815 C   0  0  0  0  0  0  0  0  0  0  0  0
   11.6845   16.4046   33.8193 C   0  0  0  0  0  0  0  0  0  0  0  0
   11.6785   16.9678   32.5458 C   0  0  0  0  0  0  0  0  0  0  0  0
   12.6433   16.5786   31.6162 C   0  0  0  0  0  0  0  0  0  0  0  0
   12.5825   17.1559   30.3741 O   0  0  0  0  0  0  0  0  0  0  0  0
   10.7222   16.8099   34.6962 O   0  0  0  0  0  0  0  0  0  0  0  0
   14.5167   14.1448   33.6606 O   0  0  0  0  0  0  0  0  0  0  0  0
   15.4783   15.5642   28.6915 O   0  0  0  0  0  0  0  0  0  0  0  0
   10.8462   16.3385   35.5378 H   0  0  0  0  0  0  0  0  0  0  0  0
   15.1355   13.9738   32.9128 H   0  0  0  0  0  0  0  0  0  0  0  0
   15.4164   16.1733   27.9368 H   0  0  0  0  0  0  0  0  0  0  0  0
   13.3774   16.6974   26.9272 C   0  0  0  0  0  0  0  0  0  0  0  0
   13.2136   17.3215   25.6862 C   0  0  0  0  0  0  0  0  0  0  0  0
   12.9680   18.6874   25.6458 C   0  0  0  0  0  0  0  0  0  0  0  0
   12.8762   19.4212   26.8263 C   0  0  0  0  0  0  0  0  0  0  0  0
   13.0374   18.8110   28.0635 C   0  0  0  0  0  0  0  0  0  0  0  0
   13.3039   17.4380   28.1220 C   0  0  0  0  0  0  0  0  0  0  0  0
   12.6316   20.7637   26.7750 O   0  0  0  0  0  0  0  0  0  0  0  0
   12.8109   19.3593   24.4661 O   0  0  0  0  0  0  0  0  0  0  0  0
   12.5492   20.9652   25.8212 H   0  0  0  0  0  0  0  0  0  0  0  0
   12.9061   18.7237   23.7356 H   0  0  0  0  0  0  0  0  0  0  0  0
 18 19  2  0  0  0
 19 20  1  0  0  0
 20 21  2  0  0  0
 21 22  1  0  0  0
 22 23  2  0  0  0
 18 23  1  0  0  0
 23  1  1  0  0  0
  1  2  2  0  0  0
  2  3  1  0  0  0
  3  4  2  0  0  0
  3  5  1  0  0  0
  5  6  2  0  0  0
  6  7  1  0  0  0
  7  8  2  0  0  0
  8  9  1  0  0  0
  9 10  2  0  0  0
  5 10  1  0  0  0
 10 11  1  0  0  0
  1 11  1  0  0  0
  8 12  1  0  0  0
  6 13  1  0  0  0
  2 14  1  0  0  0
 21 24  1  0  0  0
 20 25  1  0  0  0
 12 15  1  0  0  0
 13 16  1  0  0  0
 14 17  1  0  0  0
 24 26  1  0  0  0
 25 27  1  0  0  0
M  END
> <minimizedAffinity>
-7.88773

$$$$
Quercetin


 27 29  0  0  0  0  0  0  0  0999 V2000
   11.2299   18.3293   30.6926 C   0  0  0  0  0  0  0  0  0  0  0  0
   11.6812   17.1538   31.1757 C   0  0  0  0  0  0  0  0  0  0  0  0
   12.4949   16.2975   30.2710 C   0  0  0  0  0  0  0  0  0  0  0  0
   12.9686   15.2177   30.6171 O   0  0  0  0  0  0  0  0  0  0  0  0
   12.7277   16.7920   28.9092 C   0  0  0  0  0  0  0  0  0  0  0  0
   13.4880   16.0642   27.9856 C   0  0  0  0  0  0  0  0  0  0  0  0
   13.6911   16.5547   26.6981 C   0  0  0  0  0  0  0  0  0  0  0  0
   13.1262   17.7759   26.3422 C   0  0  0  0  0  0  0  0  0  0  0  0
   12.3689   18.5092   27.2520 C   0  0  0  0  0  0  0  0  0  0  0  0
   12.1729   18.0144   28.5416 C   0  0  0  0  0  0  0  0  0  0  0  0
   11.4297   18.7835   29.3994 O   0  0  0  0  0  0  0  0  0  0  0  0
   13.2965   18.2969   25.0937 O   0  0  0  0  0  0  0  0  0  0  0  0
   14.0665   14.8585   28.2809 O   0  0  0  0  0  0  0  0  0  0  0  0
   11.4420   16.6819   32.4545 O   0  0  0  0  0  0  0  0  0  0  0  0
   13.8412   17.6847   24.5700 H   0  0  0  0  0  0  0  0  0  0  0  0
   13.8398   14.6308   29.2126 H   0  0  0  0  0  0  0  0  0  0  0  0
   10.7662   17.2368   32.8786 H   0  0  0  0  0  0  0  0  0  0  0  0
   10.4097   19.1235   32.9168 C   0  0  0  0  0  0  0  0  0  0  0  0
    9.6508   19.9946   33.7050 C   0  0  0  0  0  0  0  0  0  0  0  0
    8.9480   21.0217   33.0894 C   0  0  0  0  0  0  0  0  0  0  0  0
    9.0082   21.1859   31.7074 C   0  0  0  0  0  0  0  0  0  0  0  0
    9.7587   20.3263   30.9159 C   0  0  0  0  0  0  0  0  0  0  0  0
   10.4588   19.2742   31.5181 C   0  0  0  0  0  0  0  0  0  0  0  0
    8.3151   22.2011   31.1126 O   0  0  0  0  0  0  0  0  0  0  0  0
    8.1783   21.8989   33.8006 O   0  0  0  0  0  0  0  0  0  0  0  0
    7.8761   22.6687   31.8514 H   0  0  0  0  0  0  0  0  0  0  0  0
    8.2284   21.6582   34.7420 H   0  0  0  0  0  0  0  0  0  0  0  0
 18 19  2  0  0  0
 19 20  1  0  0  0
 20 21  2  0  0  0
 21 22  1  0  0  0
 22 23  2  0  0  0
 18 23  1  0  0  0
 23  1  1  0  0  0
  1  2  2  0  0  0
  2  3  1  0  0  0
  3  4  2  0  0  0
  3  5  1  0  0  0
  5  6  2  0  0  0
  6  7  1  0  0  0
  7  8  2  0  0  0
  8  9  1  0  0  0
  9 10  2  0  0  0
  5 10  1  0  0  0
 10 11  1  0  0  0
  1 11  1  0  0  0
  8 12  1  0  0  0
  6 13  1  0  0  0
  2 14  1  0  0  0
 21 24  1  0  0  0
 20 25  1  0  0  0
 12 15  1  0  0  0
 13 16  1  0  0  0
 14 17  1  0  0  0
 24 26  1  0  0  0
 25 27  1  0  0  0
M  END
> <minimizedAffinity>
-7.29657

$$$$
Quercetin


 27 29  0  0  0  0  0  0  0  0999 V2000
   11.3662   19.0576   30.2525 C   0  0  0  0  0  0  0  0  0  0  0  0
   11.5441   19.4194   28.9654 C   0  0  0  0  0  0  0  0  0  0  0  0
   12.4022   18.5532   28.1127 C   0  0  0  0  0  0  0  0  0  0  0  0
   12.6144   18.7825   26.9242 O   0  0  0  0  0  0  0  0  0  0  0  0
   13.0080   17.3768   28.7470 C   0  0  0  0  0  0  0  0  0  0  0  0
   13.8237   16.4951   28.0272 C   0  0  0  0  0  0  0  0  0  0  0  0
   14.3891   15.3875   28.6541 C   0  0  0  0  0  0  0  0  0  0  0  0
   14.1343   15.1711   30.0051 C   0  0  0  0  0  0  0  0  0  0  0  0
   13.3242   16.0403   30.7313 C   0  0  0  0  0  0  0  0  0  0  0  0
   12.7572   17.1456   30.0963 C   0  0  0  0  0  0  0  0  0  0  0  0
   11.9583   17.9606   30.8561 O   0  0  0  0  0  0  0  0  0  0  0  0
   14.6656   14.1014   30.6627 O   0  0  0  0  0  0  0  0  0  0  0  0
   14.1081   16.6589   26.6976 O   0  0  0  0  0  0  0  0  0  0  0  0
   10.9872   20.5412   28.3766 O   0  0  0  0  0  0  0  0  0  0  0  0
   15.2040   13.5853   30.0384 H   0  0  0  0  0  0  0  0  0  0  0  0
   13.6533   17.4759   26.3862 H   0  0  0  0  0  0  0  0  0  0  0  0
   10.6024   21.1067   29.0670 H   0  0  0  0  0  0  0  0  0  0  0  0
   10.4653   19.5044   32.5414 C   0  0  0  0  0  0  0  0  0  0  0  0
    9.6167   20.1949   33.4128 C   0  0  0  0  0  0  0  0  0  0  0  0
    8.8068   21.2029   32.9072 C   0  0  0  0  0  0  0  0  0  0  0  0
    8.8486   21.5267   31.5530 C   0  0  0  0  0  0  0  0  0  0  0  0
    9.6876   20.8470   30.6795 C   0  0  0  0  0  0  0  0  0  0  0  0
   10.4975   19.8155   31.1689 C   0  0  0  0  0  0  0  0  0  0  0  0
    8.0496   22.5218   31.0669 O   0  0  0  0  0  0  0  0  0  0  0  0
    7.9468   21.9069   33.7026 O   0  0  0  0  0  0  0  0  0  0  0  0
    7.5628   22.8536   31.8479 H   0  0  0  0  0  0  0  0  0  0  0  0
    8.0228   21.5689   34.6118 H   0  0  0  0  0  0  0  0  0  0  0  0
 18 19  2  0  0  0
 19 20  1  0  0  0
 20 21  2  0  0  0
 21 22  1  0  0  0
 22 23  2  0  0  0
 18 23  1  0  0  0
 23  1  1  0  0  0
  1  2  2  0  0  0
  2  3  1  0  0  0
  3  4  2  0  0  0
  3  5  1  0  0  0
  5  6  2  0  0  0
  6  7  1  0  0  0
  7  8  2  0  0  0
  8  9  1  0  0  0
  9 10  2  0  0  0
  5 10  1  0  0  0
 10 11  1  0  0  0
  1 11  1  0  0  0
  8 12  1  0  0  0
  6 13  1  0  0  0
  2 14  1  0  0  0
 21 24  1  0  0  0
 20 25  1  0  0  0
 12 15  1  0  0  0
 13 16  1  0  0  0
 14 17  1  0  0  0
 24 26  1  0  0  0
 25 27  1  0  0  0
M  END
> <minimizedAffinity>
-6.91422

$$$$
Quercetin


 27 29  0  0  0  0  0  0  0  0999 V2000
   12.7918   16.5811   31.2107 C   0  0  0  0  0  0  0  0  0  0  0  0
   13.2321   15.5578   30.4505 C   0  0  0  0  0  0  0  0  0  0  0  0
   13.4180   15.8038   28.9949 C   0  0  0  0  0  0  0  0  0  0  0  0
   13.8309   14.9460   28.2178 O   0  0  0  0  0  0  0  0  0  0  0  0
   13.0870   17.1424   28.4932 C   0  0  0  0  0  0  0  0  0  0  0  0
   13.2365   17.4756   27.1413 C   0  0  0  0  0  0  0  0  0  0  0  0
   12.9120   18.7527   26.6905 C   0  0  0  0  0  0  0  0  0  0  0  0
   12.4354   19.6911   27.6011 C   0  0  0  0  0  0  0  0  0  0  0  0
   12.2831   19.3719   28.9480 C   0  0  0  0  0  0  0  0  0  0  0  0
   12.6142   18.0921   29.3940 C   0  0  0  0  0  0  0  0  0  0  0  0
   12.4565   17.8367   30.7318 O   0  0  0  0  0  0  0  0  0  0  0  0
   12.1039   20.9537   27.2075 O   0  0  0  0  0  0  0  0  0  0  0  0
   13.7004   16.5932   26.2024 O   0  0  0  0  0  0  0  0  0  0  0  0
   13.5236   14.2906   30.9246 O   0  0  0  0  0  0  0  0  0  0  0  0
   12.2593   21.0350   26.2509 H   0  0  0  0  0  0  0  0  0  0  0  0
   13.8838   15.7360   26.6529 H   0  0  0  0  0  0  0  0  0  0  0  0
   13.1995   14.2087   31.8370 H   0  0  0  0  0  0  0  0  0  0  0  0
   13.6422   15.9050   33.4624 C   0  0  0  0  0  0  0  0  0  0  0  0
   13.4742   15.7535   34.8426 C   0  0  0  0  0  0  0  0  0  0  0  0
   12.2843   16.1671   35.4263 C   0  0  0  0  0  0  0  0  0  0  0  0
   11.2782   16.7342   34.6475 C   0  0  0  0  0  0  0  0  0  0  0  0
   11.4350   16.8889   33.2762 C   0  0  0  0  0  0  0  0  0  0  0  0
   12.6211   16.4604   32.6685 C   0  0  0  0  0  0  0  0  0  0  0  0
   10.1128   17.1401   35.2324 O   0  0  0  0  0  0  0  0  0  0  0  0
   12.0523   16.0357   36.7667 O   0  0  0  0  0  0  0  0  0  0  0  0
   10.2301   16.9428   36.1834 H   0  0  0  0  0  0  0  0  0  0  0  0
   12.8332   15.6227   37.1746 H   0  0  0  0  0  0  0  0  0  0  0  0
 18 19  2  0  0  0
 19 20  1  0  0  0
 20 21  2  0  0  0
 21 22  1  0  0  0
 22 23  2  0  0  0
 18 23  1  0  0  0
 23  1  1  0  0  0
  1  2  2  0  0  0
  2  3  1  0  0  0
  3  4  2  0  0  0
  3  5  1  0  0  0
  5  6  2  0  0  0
  6  7  1  0  0  0
  7  8  2  0  0  0
  8  9  1  0  0  0
  9 10  2  0  0  0
  5 10  1  0  0  0
 10 11  1  0  0  0
  1 11  1  0  0  0
  8 12  1  0  0  0
  6 13  1  0  0  0
  2 14  1  0  0  0
 21 24  1  0  0  0
 20 25  1  0  0  0
 12 15  1  0  0  0
 13 16  1  0  0  0
 14 17  1  0  0  0
 24 26  1  0  0  0
 25 27  1  0  0  0
M  END
> <minimizedAffinity>
-6.73830

$$$$
