Quercetin


 27 29  0  0  0  0  0  0  0  0999 V2000
    5.1969   27.8023   25.5588 C   0  0  0  0  0  0  0  0  0  0  0  0
    4.6734   28.3226   24.4301 C   0  0  0  0  0  0  0  0  0  0  0  0
    5.0349   27.6814   23.1370 C   0  0  0  0  0  0  0  0  0  0  0  0
    4.5994   28.0654   22.0539 O   0  0  0  0  0  0  0  0  0  0  0  0
    5.9539   26.5386   23.1887 C   0  0  0  0  0  0  0  0  0  0  0  0
    6.3472   25.8618   22.0276 C   0  0  0  0  0  0  0  0  0  0  0  0
    7.2233   24.7820   22.1042 C   0  0  0  0  0  0  0  0  0  0  0  0
    7.7036   24.3871   23.3494 C   0  0  0  0  0  0  0  0  0  0  0  0
    7.3191   25.0517   24.5111 C   0  0  0  0  0  0  0  0  0  0  0  0
    6.4377   26.1299   24.4280 C   0  0  0  0  0  0  0  0  0  0  0  0
    6.0834   26.7390   25.6041 O   0  0  0  0  0  0  0  0  0  0  0  0
    8.5635   23.3365   23.4751 O   0  0  0  0  0  0  0  0  0  0  0  0
    5.9066   26.2068   20.7777 O   0  0  0  0  0  0  0  0  0  0  0  0
    3.8230   29.4135   24.3842 O   0  0  0  0  0  0  0  0  0  0  0  0
    8.7431   22.9708   22.5920 H   0  0  0  0  0  0  0  0  0  0  0  0
    5.3045   26.9817   20.8689 H   0  0  0  0  0  0  0  0  0  0  0  0
    3.8057   29.8419   25.2563 H   0  0  0  0  0  0  0  0  0  0  0  0
    4.1399   27.5436   27.8097 C   0  0  0  0  0  0  0  0  0  0  0  0
    3.7900   28.0485   29.0662 C   0  0  0  0  0  0  0  0  0  0  0  0
    4.1762   29.3382   29.4059 C   0  0  0  0  0  0  0  0  0  0  0  0
    4.9104   30.1119   28.5100 C   0  0  0  0  0  0  0  0  0  0  0  0
    5.2627   29.6200   27.2599 C   0  0  0  0  0  0  0  0  0  0  0  0
    4.8658   28.3284   26.8939 C   0  0  0  0  0  0  0  0  0  0  0  0
    5.2874   31.3782   28.8555 O   0  0  0  0  0  0  0  0  0  0  0  0
    3.8557   29.8950   30.6121 O   0  0  0  0  0  0  0  0  0  0  0  0
    4.9416   31.5019   29.7623 H   0  0  0  0  0  0  0  0  0  0  0  0
    3.3425   29.2456   31.1236 H   0  0  0  0  0  0  0  0  0  0  0  0
 18 19  2  0  0  0
 19 20  1  0  0  0
 20 21  2  0  0  0
 21 22  1  0  0  0
 22 23  2  0  0  0
 18 23  1  0  0  0
 23  1  1  0  0  0
  1  2  2  0  0  0
  2  3  1  0  0  0
  3  4  2  0  0  0
  3  5  1  0  0  0
  5  6  2  0  0  0
  6  7  1  0  0  0
  7  8  2  0  0  0
  8  9  1  0  0  0
  9 10  2  0  0  0
  5 10  1  0  0  0
 10 11  1  0  0  0
  1 11  1  0  0  0
  8 12  1  0  0  0
  6 13  1  0  0  0
  2 14  1  0  0  0
 21 24  1  0  0  0
 20 25  1  0  0  0
 12 15  1  0  0  0
 13 16  1  0  0  0
 14 17  1  0  0  0
 24 26  1  0  0  0
 25 27  1  0  0  0
M  END
> <minimizedAffinity>
-8.87566

$$$$
Quercetin


 27 29  0  0  0  0  0  0  0  0999 V2000
    5.3165   27.9536   25.7476 C   0  0  0  0  0  0  0  0  0  0  0  0
    4.6209   28.4787   24.7183 C   0  0  0  0  0  0  0  0  0  0  0  0
    4.7808   27.8498   23.3794 C   0  0  0  0  0  0  0  0  0  0  0  0
    4.1801   28.2389   22.3804 O   0  0  0  0  0  0  0  0  0  0  0  0
    5.7033   26.7132   23.2780 C   0  0  0  0  0  0  0  0  0  0  0  0
    5.9154   26.0480   22.0641 C   0  0  0  0  0  0  0  0  0  0  0  0
    6.7990   24.9739   21.9945 C   0  0  0  0  0  0  0  0  0  0  0  0
    7.4692   24.5730   23.1465 C   0  0  0  0  0  0  0  0  0  0  0  0
    7.2660   25.2261   24.3595 C   0  0  0  0  0  0  0  0  0  0  0  0
    6.3762   26.2986   24.4235 C   0  0  0  0  0  0  0  0  0  0  0  0
    6.2054   26.8964   25.6455 O   0  0  0  0  0  0  0  0  0  0  0  0
    8.3443   23.5276   23.1281 O   0  0  0  0  0  0  0  0  0  0  0  0
    5.2839   26.3992   20.9008 O   0  0  0  0  0  0  0  0  0  0  0  0
    3.7674   29.5639   24.8144 O   0  0  0  0  0  0  0  0  0  0  0  0
    8.3866   23.1698   22.2248 H   0  0  0  0  0  0  0  0  0  0  0  0
    4.6988   27.1691   21.0910 H   0  0  0  0  0  0  0  0  0  0  0  0
    3.8833   29.9856   25.6823 H   0  0  0  0  0  0  0  0  0  0  0  0
    5.9857   29.5485   27.5529 C   0  0  0  0  0  0  0  0  0  0  0  0
    5.9017   30.0195   28.8671 C   0  0  0  0  0  0  0  0  0  0  0  0
    5.0167   29.4100   29.7463 C   0  0  0  0  0  0  0  0  0  0  0  0
    4.2176   28.3517   29.3197 C   0  0  0  0  0  0  0  0  0  0  0  0
    4.2936   27.8765   28.0169 C   0  0  0  0  0  0  0  0  0  0  0  0
    5.1938   28.4673   27.1223 C   0  0  0  0  0  0  0  0  0  0  0  0
    3.3485   27.7614   30.1921 O   0  0  0  0  0  0  0  0  0  0  0  0
    4.8954   29.8140   31.0463 O   0  0  0  0  0  0  0  0  0  0  0  0
    3.4614   28.2561   31.0285 H   0  0  0  0  0  0  0  0  0  0  0  0
    5.5137   30.5497   31.1982 H   0  0  0  0  0  0  0  0  0  0  0  0
 18 19  2  0  0  0
 19 20  1  0  0  0
 20 21  2  0  0  0
 21 22  1  0  0  0
 22 23  2  0  0  0
 18 23  1  0  0  0
 23  1  1  0  0  0
  1  2  2  0  0  0
  2  3  1  0  0  0
  3  4  2  0  0  0
  3  5  1  0  0  0
  5  6  2  0  0  0
  6  7  1  0  0  0
  7  8  2  0  0  0
  8  9  1  0  0  0
  9 10  2  0  0  0
  5 10  1  0  0  0
 10 11  1  0  0  0
  1 11  1  0  0  0
  8 12  1  0  0  0
  6 13  1  0  0  0
  2 14  1  0  0  0
 21 24  1  0  0  0
 20 25  1  0  0  0
 12 15  1  0  0  0
 13 16  1  0  0  0
 14 17  1  0  0  0
 24 26  1  0  0  0
 25 27  1  0  0  0
M  END
> <minimizedAffinity>
-8.80026

$$$$
Quercetin


 27 29  0  0  0  0  0  0  0  0999 V2000
    4.8960   28.3945   26.5958 C   0  0  0  0  0  0  0  0  0  0  0  0
    5.0128   29.7258   26.7773 C   0  0  0  0  0  0  0  0  0  0  0  0
    4.6272   30.2827   28.1021 C   0  0  0  0  0  0  0  0  0  0  0  0
    4.7121   31.4774   28.3771 O   0  0  0  0  0  0  0  0  0  0  0  0
    4.1281   29.3375   29.1074 C   0  0  0  0  0  0  0  0  0  0  0  0
    3.7485   29.7617   30.3868 C   0  0  0  0  0  0  0  0  0  0  0  0
    3.2749   28.8444   31.3215 C   0  0  0  0  0  0  0  0  0  0  0  0
    3.1820   27.5022   30.9655 C   0  0  0  0  0  0  0  0  0  0  0  0
    3.5572   27.0681   29.6967 C   0  0  0  0  0  0  0  0  0  0  0  0
    4.0351   27.9914   28.7664 C   0  0  0  0  0  0  0  0  0  0  0  0
    4.4017   27.5070   27.5373 O   0  0  0  0  0  0  0  0  0  0  0  0
    2.7239   26.5670   31.8457 O   0  0  0  0  0  0  0  0  0  0  0  0
    3.8186   31.0684   30.7909 O   0  0  0  0  0  0  0  0  0  0  0  0
    5.4649   30.6164   25.8192 O   0  0  0  0  0  0  0  0  0  0  0  0
    2.5012   27.0075   32.6837 H   0  0  0  0  0  0  0  0  0  0  0  0
    4.1613   31.6033   30.0374 H   0  0  0  0  0  0  0  0  0  0  0  0
    5.5148   30.1638   24.9607 H   0  0  0  0  0  0  0  0  0  0  0  0
    6.3671   26.8205   25.3273 C   0  0  0  0  0  0  0  0  0  0  0  0
    6.7771   26.2162   24.1345 C   0  0  0  0  0  0  0  0  0  0  0  0
    6.1066   26.5232   22.9581 C   0  0  0  0  0  0  0  0  0  0  0  0
    5.0347   27.4127   22.9705 C   0  0  0  0  0  0  0  0  0  0  0  0
    4.6199   28.0182   24.1496 C   0  0  0  0  0  0  0  0  0  0  0  0
    5.2963   27.7342   25.3418 C   0  0  0  0  0  0  0  0  0  0  0  0
    4.3806   27.7054   21.8080 O   0  0  0  0  0  0  0  0  0  0  0  0
    6.4652   25.9769   21.7577 O   0  0  0  0  0  0  0  0  0  0  0  0
    4.8329   27.1689   21.1264 H   0  0  0  0  0  0  0  0  0  0  0  0
    7.2248   25.3867   21.9035 H   0  0  0  0  0  0  0  0  0  0  0  0
 18 19  2  0  0  0
 19 20  1  0  0  0
 20 21  2  0  0  0
 21 22  1  0  0  0
 22 23  2  0  0  0
 18 23  1  0  0  0
 23  1  1  0  0  0
  1  2  2  0  0  0
  2  3  1  0  0  0
  3  4  2  0  0  0
  3  5  1  0  0  0
  5  6  2  0  0  0
  6  7  1  0  0  0
  7  8  2  0  0  0
  8  9  1  0  0  0
  9 10  2  0  0  0
  5 10  1  0  0  0
 10 11  1  0  0  0
  1 11  1  0  0  0
  8 12  1  0  0  0
  6 13  1  0  0  0
  2 14  1  0  0  0
 21 24  1  0  0  0
 20 25  1  0  0  0
 12 15  1  0  0  0
 13 16  1  0  0  0
 14 17  1  0  0  0
 24 26  1  0  0  0
 25 27  1  0  0  0
M  END
> <minimizedAffinity>
-8.51733

$$$$
Quercetin


 27 29  0  0  0  0  0  0  0  0999 V2000
    5.6730   27.4532   24.5868 C   0  0  0  0  0  0  0  0  0  0  0  0
    4.7551   28.3649   24.2057 C   0  0  0  0  0  0  0  0  0  0  0  0
    4.2858   29.3449   25.2221 C   0  0  0  0  0  0  0  0  0  0  0  0
    3.4664   30.2266   24.9745 O   0  0  0  0  0  0  0  0  0  0  0  0
    4.8466   29.2303   26.5733 C   0  0  0  0  0  0  0  0  0  0  0  0
    4.4758   30.1105   27.5973 C   0  0  0  0  0  0  0  0  0  0  0  0
    5.0206   29.9778   28.8721 C   0  0  0  0  0  0  0  0  0  0  0  0
    5.9358   28.9576   29.1140 C   0  0  0  0  0  0  0  0  0  0  0  0
    6.3129   28.0766   28.1037 C   0  0  0  0  0  0  0  0  0  0  0  0
    5.7668   28.2177   26.8277 C   0  0  0  0  0  0  0  0  0  0  0  0
    6.1830   27.3308   25.8687 O   0  0  0  0  0  0  0  0  0  0  0  0
    6.4958   28.7871   30.3455 O   0  0  0  0  0  0  0  0  0  0  0  0
    3.5808   31.1311   27.4160 O   0  0  0  0  0  0  0  0  0  0  0  0
    4.2137   28.4565   22.9353 O   0  0  0  0  0  0  0  0  0  0  0  0
    6.1448   29.4664   30.9464 H   0  0  0  0  0  0  0  0  0  0  0  0
    3.2735   31.1055   26.4800 H   0  0  0  0  0  0  0  0  0  0  0  0
    4.4626   27.6681   22.4244 H   0  0  0  0  0  0  0  0  0  0  0  0
    5.9341   26.5344   22.2763 C   0  0  0  0  0  0  0  0  0  0  0  0
    6.4402   25.5840   21.3839 C   0  0  0  0  0  0  0  0  0  0  0  0
    7.2611   24.5744   21.8682 C   0  0  0  0  0  0  0  0  0  0  0  0
    7.5826   24.5176   23.2224 C   0  0  0  0  0  0  0  0  0  0  0  0
    7.0851   25.4565   24.1168 C   0  0  0  0  0  0  0  0  0  0  0  0
    6.2411   26.4705   23.6486 C   0  0  0  0  0  0  0  0  0  0  0  0
    8.3931   23.5219   23.6876 O   0  0  0  0  0  0  0  0  0  0  0  0
    7.7780   23.6082   21.0514 O   0  0  0  0  0  0  0  0  0  0  0  0
    8.6214   22.9962   22.8947 H   0  0  0  0  0  0  0  0  0  0  0  0
    7.4652   23.7728   20.1449 H   0  0  0  0  0  0  0  0  0  0  0  0
 18 19  2  0  0  0
 19 20  1  0  0  0
 20 21  2  0  0  0
 21 22  1  0  0  0
 22 23  2  0  0  0
 18 23  1  0  0  0
 23  1  1  0  0  0
  1  2  2  0  0  0
  2  3  1  0  0  0
  3  4  2  0  0  0
  3  5  1  0  0  0
  5  6  2  0  0  0
  6  7  1  0  0  0
  7  8  2  0  0  0
  8  9  1  0  0  0
  9 10  2  0  0  0
  5 10  1  0  0  0
 10 11  1  0  0  0
  1 11  1  0  0  0
  8 12  1  0  0  0
  6 13  1  0  0  0
  2 14  1  0  0  0
 21 24  1  0  0  0
 20 25  1  0  0  0
 12 15  1  0  0  0
 13 16  1  0  0  0
 14 17  1  0  0  0
 24 26  1  0  0  0
 25 27  1  0  0  0
M  END
> <minimizedAffinity>
-8.31126

$$$$
Quercetin


 27 29  0  0  0  0  0  0  0  0999 V2000
    5.4799   27.0528   26.5391 C   0  0  0  0  0  0  0  0  0  0  0  0
    4.6226   27.9058   25.9422 C   0  0  0  0  0  0  0  0  0  0  0  0
    4.5111   27.8542   24.4594 C   0  0  0  0  0  0  0  0  0  0  0  0
    3.7482   28.5743   23.8194 O   0  0  0  0  0  0  0  0  0  0  0  0
    5.3619   26.8875   23.7560 C   0  0  0  0  0  0  0  0  0  0  0  0
    5.3238   26.7561   22.3623 C   0  0  0  0  0  0  0  0  0  0  0  0
    6.1443   25.8329   21.7191 C   0  0  0  0  0  0  0  0  0  0  0  0
    7.0035   25.0455   22.4799 C   0  0  0  0  0  0  0  0  0  0  0  0
    7.0499   25.1664   23.8664 C   0  0  0  0  0  0  0  0  0  0  0  0
    6.2221   26.0900   24.5051 C   0  0  0  0  0  0  0  0  0  0  0  0
    6.3002   26.1580   25.8722 O   0  0  0  0  0  0  0  0  0  0  0  0
    7.8262   24.1284   21.8956 O   0  0  0  0  0  0  0  0  0  0  0  0
    4.4990   27.5039   21.5649 O   0  0  0  0  0  0  0  0  0  0  0  0
    3.8368   28.8302   26.6081 O   0  0  0  0  0  0  0  0  0  0  0  0
    7.6887   24.1520   20.9331 H   0  0  0  0  0  0  0  0  0  0  0  0
    3.9842   28.1132   22.1438 H   0  0  0  0  0  0  0  0  0  0  0  0
    4.1252   28.8861   27.5345 H   0  0  0  0  0  0  0  0  0  0  0  0
    6.6459   27.7166   28.6487 C   0  0  0  0  0  0  0  0  0  0  0  0
    6.8193   27.6311   30.0339 C   0  0  0  0  0  0  0  0  0  0  0  0
    5.9683   26.8184   30.7708 C   0  0  0  0  0  0  0  0  0  0  0  0
    4.9507   26.1079   30.1382 C   0  0  0  0  0  0  0  0  0  0  0  0
    4.7703   26.1859   28.7633 C   0  0  0  0  0  0  0  0  0  0  0  0
    5.6309   26.9861   28.0025 C   0  0  0  0  0  0  0  0  0  0  0  0
    4.1177   25.3137   30.8731 O   0  0  0  0  0  0  0  0  0  0  0  0
    6.0919   26.6814   32.1250 O   0  0  0  0  0  0  0  0  0  0  0  0
    4.4237   25.4194   31.7963 H   0  0  0  0  0  0  0  0  0  0  0  0
    6.8414   27.2263   32.4217 H   0  0  0  0  0  0  0  0  0  0  0  0
 18 19  2  0  0  0
 19 20  1  0  0  0
 20 21  2  0  0  0
 21 22  1  0  0  0
 22 23  2  0  0  0
 18 23  1  0  0  0
 23  1  1  0  0  0
  1  2  2  0  0  0
  2  3  1  0  0  0
  3  4  2  0  0  0
  3  5  1  0  0  0
  5  6  2  0  0  0
  6  7  1  0  0  0
  7  8  2  0  0  0
  8  9  1  0  0  0
  9 10  2  0  0  0
  5 10  1  0  0  0
 10 11  1  0  0  0
  1 11  1  0  0  0
  8 12  1  0  0  0
  6 13  1  0  0  0
  2 14  1  0  0  0
 21 24  1  0  0  0
 20 25  1  0  0  0
 12 15  1  0  0  0
 13 16  1  0  0  0
 14 17  1  0  0  0
 24 26  1  0  0  0
 25 27  1  0  0  0
M  END
> <minimizedAffinity>
-8.13204

$$$$
