Quercetin


 27 29  0  0  0  0  0  0  0  0999 V2000
  -12.0974   32.9078   23.2997 C   0  0  0  0  0  0  0  0  0  0  0  0
  -11.6110   34.0798   23.7567 C   0  0  0  0  0  0  0  0  0  0  0  0
  -12.2717   34.6914   24.9413 C   0  0  0  0  0  0  0  0  0  0  0  0
  -11.8966   35.7465   25.4473 O   0  0  0  0  0  0  0  0  0  0  0  0
  -13.4203   33.9780   25.5114 C   0  0  0  0  0  0  0  0  0  0  0  0
  -14.1037   34.4670   26.6316 C   0  0  0  0  0  0  0  0  0  0  0  0
  -15.1930   33.7719   27.1511 C   0  0  0  0  0  0  0  0  0  0  0  0
  -15.5936   32.5873   26.5403 C   0  0  0  0  0  0  0  0  0  0  0  0
  -14.9216   32.0905   25.4264 C   0  0  0  0  0  0  0  0  0  0  0  0
  -13.8283   32.7893   24.9136 C   0  0  0  0  0  0  0  0  0  0  0  0
  -13.1967   32.2481   23.8238 O   0  0  0  0  0  0  0  0  0  0  0  0
  -16.6543   31.8719   27.0119 O   0  0  0  0  0  0  0  0  0  0  0  0
  -13.7537   35.6259   27.2718 O   0  0  0  0  0  0  0  0  0  0  0  0
  -10.5400   34.7595   23.2032 O   0  0  0  0  0  0  0  0  0  0  0  0
  -17.0237   32.3317   27.7852 H   0  0  0  0  0  0  0  0  0  0  0  0
  -12.9793   36.0133   26.8010 H   0  0  0  0  0  0  0  0  0  0  0  0
  -10.3136   34.3569   22.3482 H   0  0  0  0  0  0  0  0  0  0  0  0
  -10.1865   31.6663   22.2712 C   0  0  0  0  0  0  0  0  0  0  0  0
   -9.5861   31.0173   21.1875 C   0  0  0  0  0  0  0  0  0  0  0  0
  -10.2957   30.8896   20.0010 C   0  0  0  0  0  0  0  0  0  0  0  0
  -11.5907   31.3926   19.8978 C   0  0  0  0  0  0  0  0  0  0  0  0
  -12.1956   32.0388   20.9679 C   0  0  0  0  0  0  0  0  0  0  0  0
  -11.4878   32.1926   22.1658 C   0  0  0  0  0  0  0  0  0  0  0  0
  -12.2805   31.2591   18.7268 O   0  0  0  0  0  0  0  0  0  0  0  0
   -9.7623   30.2776   18.9016 O   0  0  0  0  0  0  0  0  0  0  0  0
  -11.6710   30.7767   18.1327 H   0  0  0  0  0  0  0  0  0  0  0  0
   -8.8600   29.9860   19.1199 H   0  0  0  0  0  0  0  0  0  0  0  0
 18 19  2  0  0  0
 19 20  1  0  0  0
 20 21  2  0  0  0
 21 22  1  0  0  0
 22 23  2  0  0  0
 18 23  1  0  0  0
 23  1  1  0  0  0
  1  2  2  0  0  0
  2  3  1  0  0  0
  3  4  2  0  0  0
  3  5  1  0  0  0
  5  6  2  0  0  0
  6  7  1  0  0  0
  7  8  2  0  0  0
  8  9  1  0  0  0
  9 10  2  0  0  0
  5 10  1  0  0  0
 10 11  1  0  0  0
  1 11  1  0  0  0
  8 12  1  0  0  0
  6 13  1  0  0  0
  2 14  1  0  0  0
 21 24  1  0  0  0
 20 25  1  0  0  0
 12 15  1  0  0  0
 13 16  1  0  0  0
 14 17  1  0  0  0
 24 26  1  0  0  0
 25 27  1  0  0  0
M  END
> <minimizedAffinity>
-5.43788

$$$$
Quercetin


 27 29  0  0  0  0  0  0  0  0999 V2000
  -12.3988   31.9444   22.3663 C   0  0  0  0  0  0  0  0  0  0  0  0
  -11.0754   31.7528   22.1903 C   0  0  0  0  0  0  0  0  0  0  0  0
  -10.6067   31.3425   20.8391 C   0  0  0  0  0  0  0  0  0  0  0  0
   -9.4222   31.1594   20.5678 O   0  0  0  0  0  0  0  0  0  0  0  0
  -11.6284   31.1578   19.8021 C   0  0  0  0  0  0  0  0  0  0  0  0
  -11.2877   30.7817   18.4970 C   0  0  0  0  0  0  0  0  0  0  0  0
  -12.2774   30.6099   17.5324 C   0  0  0  0  0  0  0  0  0  0  0  0
  -13.6083   30.8146   17.8842 C   0  0  0  0  0  0  0  0  0  0  0  0
  -13.9594   31.1896   19.1785 C   0  0  0  0  0  0  0  0  0  0  0  0
  -12.9628   31.3644   20.1391 C   0  0  0  0  0  0  0  0  0  0  0  0
  -13.3643   31.7459   21.3933 O   0  0  0  0  0  0  0  0  0  0  0  0
  -14.6124   30.6581   16.9752 O   0  0  0  0  0  0  0  0  0  0  0  0
   -9.9962   30.5669   18.0956 O   0  0  0  0  0  0  0  0  0  0  0  0
  -10.1172   31.9084   23.1767 O   0  0  0  0  0  0  0  0  0  0  0  0
  -14.2251   30.3981   16.1218 H   0  0  0  0  0  0  0  0  0  0  0  0
   -9.4063   30.7163   18.8709 H   0  0  0  0  0  0  0  0  0  0  0  0
  -10.5577   32.0026   24.0378 H   0  0  0  0  0  0  0  0  0  0  0  0
  -12.8157   33.7373   24.0581 C   0  0  0  0  0  0  0  0  0  0  0  0
  -13.3172   34.1689   25.2903 C   0  0  0  0  0  0  0  0  0  0  0  0
  -13.9742   33.2583   26.1069 C   0  0  0  0  0  0  0  0  0  0  0  0
  -14.1389   31.9370   25.6976 C   0  0  0  0  0  0  0  0  0  0  0  0
  -13.6444   31.4985   24.4761 C   0  0  0  0  0  0  0  0  0  0  0  0
  -12.9634   32.3988   23.6483 C   0  0  0  0  0  0  0  0  0  0  0  0
  -14.7891   31.0504   26.5076 O   0  0  0  0  0  0  0  0  0  0  0  0
  -14.4765   33.6127   27.3275 O   0  0  0  0  0  0  0  0  0  0  0  0
  -15.0479   31.5741   27.2923 H   0  0  0  0  0  0  0  0  0  0  0  0
  -14.2825   34.5542   27.4779 H   0  0  0  0  0  0  0  0  0  0  0  0
 18 19  2  0  0  0
 19 20  1  0  0  0
 20 21  2  0  0  0
 21 22  1  0  0  0
 22 23  2  0  0  0
 18 23  1  0  0  0
 23  1  1  0  0  0
  1  2  2  0  0  0
  2  3  1  0  0  0
  3  4  2  0  0  0
  3  5  1  0  0  0
  5  6  2  0  0  0
  6  7  1  0  0  0
  7  8  2  0  0  0
  8  9  1  0  0  0
  9 10  2  0  0  0
  5 10  1  0  0  0
 10 11  1  0  0  0
  1 11  1  0  0  0
  8 12  1  0  0  0
  6 13  1  0  0  0
  2 14  1  0  0  0
 21 24  1  0  0  0
 20 25  1  0  0  0
 12 15  1  0  0  0
 13 16  1  0  0  0
 14 17  1  0  0  0
 24 26  1  0  0  0
 25 27  1  0  0  0
M  END
> <minimizedAffinity>
-5.17676

$$$$
Quercetin


 27 29  0  0  0  0  0  0  0  0999 V2000
  -10.9422   33.1665   21.3257 C   0  0  0  0  0  0  0  0  0  0  0  0
  -10.3898   34.1779   22.0264 C   0  0  0  0  0  0  0  0  0  0  0  0
  -11.0098   34.5397   23.3297 C   0  0  0  0  0  0  0  0  0  0  0  0
  -10.5747   35.4322   24.0537 O   0  0  0  0  0  0  0  0  0  0  0  0
  -12.1927   33.7770   23.7445 C   0  0  0  0  0  0  0  0  0  0  0  0
  -12.8424   34.0353   24.9578 C   0  0  0  0  0  0  0  0  0  0  0  0
  -13.9654   33.2988   25.3263 C   0  0  0  0  0  0  0  0  0  0  0  0
  -14.4336   32.3053   24.4715 C   0  0  0  0  0  0  0  0  0  0  0  0
  -13.7957   32.0386   23.2627 C   0  0  0  0  0  0  0  0  0  0  0  0
  -12.6685   32.7771   22.9014 C   0  0  0  0  0  0  0  0  0  0  0  0
  -12.0732   32.4638   21.7068 O   0  0  0  0  0  0  0  0  0  0  0  0
  -15.5295   31.5583   24.7882 O   0  0  0  0  0  0  0  0  0  0  0  0
  -12.4260   34.9997   25.8364 O   0  0  0  0  0  0  0  0  0  0  0  0
   -9.2861   34.9082   21.6216 O   0  0  0  0  0  0  0  0  0  0  0  0
  -15.8691   31.8501   25.6515 H   0  0  0  0  0  0  0  0  0  0  0  0
  -11.6341   35.4424   25.4514 H   0  0  0  0  0  0  0  0  0  0  0  0
   -9.0866   34.6979   20.6940 H   0  0  0  0  0  0  0  0  0  0  0  0
   -9.7308   33.5936   19.1807 C   0  0  0  0  0  0  0  0  0  0  0  0
   -9.2246   33.1618   17.9505 C   0  0  0  0  0  0  0  0  0  0  0  0
   -9.3618   31.8263   17.5965 C   0  0  0  0  0  0  0  0  0  0  0  0
   -9.9859   30.9296   18.4607 C   0  0  0  0  0  0  0  0  0  0  0  0
  -10.4921   31.3484   19.6844 C   0  0  0  0  0  0  0  0  0  0  0  0
  -10.3787   32.6951   20.0493 C   0  0  0  0  0  0  0  0  0  0  0  0
  -10.1131   29.6177   18.1036 O   0  0  0  0  0  0  0  0  0  0  0  0
   -8.9005   31.3431   16.4042 O   0  0  0  0  0  0  0  0  0  0  0  0
   -9.6869   29.5567   17.2251 H   0  0  0  0  0  0  0  0  0  0  0  0
   -8.4987   32.0784   15.9096 H   0  0  0  0  0  0  0  0  0  0  0  0
 18 19  2  0  0  0
 19 20  1  0  0  0
 20 21  2  0  0  0
 21 22  1  0  0  0
 22 23  2  0  0  0
 18 23  1  0  0  0
 23  1  1  0  0  0
  1  2  2  0  0  0
  2  3  1  0  0  0
  3  4  2  0  0  0
  3  5  1  0  0  0
  5  6  2  0  0  0
  6  7  1  0  0  0
  7  8  2  0  0  0
  8  9  1  0  0  0
  9 10  2  0  0  0
  5 10  1  0  0  0
 10 11  1  0  0  0
  1 11  1  0  0  0
  8 12  1  0  0  0
  6 13  1  0  0  0
  2 14  1  0  0  0
 21 24  1  0  0  0
 20 25  1  0  0  0
 12 15  1  0  0  0
 13 16  1  0  0  0
 14 17  1  0  0  0
 24 26  1  0  0  0
 25 27  1  0  0  0
M  END
> <minimizedAffinity>
-4.94244

$$$$
Quercetin


 27 29  0  0  0  0  0  0  0  0999 V2000
  -12.7127   32.1603   21.9494 C   0  0  0  0  0  0  0  0  0  0  0  0
  -13.7534   31.3104   21.8325 C   0  0  0  0  0  0  0  0  0  0  0  0
  -14.7602   31.2904   22.9279 C   0  0  0  0  0  0  0  0  0  0  0  0
  -15.7538   30.5675   22.9116 O   0  0  0  0  0  0  0  0  0  0  0  0
  -14.5309   32.1877   24.0661 C   0  0  0  0  0  0  0  0  0  0  0  0
  -15.4251   32.2492   25.1420 C   0  0  0  0  0  0  0  0  0  0  0  0
  -15.1822   33.1072   26.2117 C   0  0  0  0  0  0  0  0  0  0  0  0
  -14.0384   33.8999   26.1973 C   0  0  0  0  0  0  0  0  0  0  0  0
  -13.1422   33.8482   25.1327 C   0  0  0  0  0  0  0  0  0  0  0  0
  -13.3936   32.9898   24.0621 C   0  0  0  0  0  0  0  0  0  0  0  0
  -12.4847   32.9888   23.0356 O   0  0  0  0  0  0  0  0  0  0  0  0
  -13.7573   34.7548   27.2216 O   0  0  0  0  0  0  0  0  0  0  0  0
  -16.5648   31.4928   25.2090 O   0  0  0  0  0  0  0  0  0  0  0  0
  -13.9549   30.4510   20.7666 O   0  0  0  0  0  0  0  0  0  0  0  0
  -14.4617   34.6873   27.8887 H   0  0  0  0  0  0  0  0  0  0  0  0
  -16.6084   30.9334   24.3987 H   0  0  0  0  0  0  0  0  0  0  0  0
  -13.1543   30.4317   20.2161 H   0  0  0  0  0  0  0  0  0  0  0  0
  -10.5847   31.4215   20.8649 C   0  0  0  0  0  0  0  0  0  0  0  0
   -9.5876   31.5656   19.8947 C   0  0  0  0  0  0  0  0  0  0  0  0
   -9.7022   32.5824   18.9563 C   0  0  0  0  0  0  0  0  0  0  0  0
  -10.8007   33.4386   18.9768 C   0  0  0  0  0  0  0  0  0  0  0  0
  -11.7960   33.3041   19.9361 C   0  0  0  0  0  0  0  0  0  0  0  0
  -11.6873   32.2958   20.9011 C   0  0  0  0  0  0  0  0  0  0  0  0
  -10.9046   34.4337   18.0473 O   0  0  0  0  0  0  0  0  0  0  0  0
   -8.7569   32.7847   17.9902 O   0  0  0  0  0  0  0  0  0  0  0  0
  -10.1109   34.3322   17.4846 H   0  0  0  0  0  0  0  0  0  0  0  0
   -8.0544   32.1212   18.1041 H   0  0  0  0  0  0  0  0  0  0  0  0
 18 19  2  0  0  0
 19 20  1  0  0  0
 20 21  2  0  0  0
 21 22  1  0  0  0
 22 23  2  0  0  0
 18 23  1  0  0  0
 23  1  1  0  0  0
  1  2  2  0  0  0
  2  3  1  0  0  0
  3  4  2  0  0  0
  3  5  1  0  0  0
  5  6  2  0  0  0
  6  7  1  0  0  0
  7  8  2  0  0  0
  8  9  1  0  0  0
  9 10  2  0  0  0
  5 10  1  0  0  0
 10 11  1  0  0  0
  1 11  1  0  0  0
  8 12  1  0  0  0
  6 13  1  0  0  0
  2 14  1  0  0  0
 21 24  1  0  0  0
 20 25  1  0  0  0
 12 15  1  0  0  0
 13 16  1  0  0  0
 14 17  1  0  0  0
 24 26  1  0  0  0
 25 27  1  0  0  0
M  END
> <minimizedAffinity>
-4.89106

$$$$
Quercetin


 27 29  0  0  0  0  0  0  0  0999 V2000
   -9.8856   31.4051   18.7884 C   0  0  0  0  0  0  0  0  0  0  0  0
   -9.1870   32.4965   18.4143 C   0  0  0  0  0  0  0  0  0  0  0  0
   -8.6271   32.5240   17.0361 C   0  0  0  0  0  0  0  0  0  0  0  0
   -7.9913   33.4764   16.5902 O   0  0  0  0  0  0  0  0  0  0  0  0
   -8.8628   31.3466   16.1927 C   0  0  0  0  0  0  0  0  0  0  0  0
   -8.3848   31.2797   14.8782 C   0  0  0  0  0  0  0  0  0  0  0  0
   -8.6196   30.1490   14.0999 C   0  0  0  0  0  0  0  0  0  0  0  0
   -9.3330   29.0868   14.6473 C   0  0  0  0  0  0  0  0  0  0  0  0
   -9.8141   29.1418   15.9530 C   0  0  0  0  0  0  0  0  0  0  0  0
   -9.5793   30.2793   16.7259 C   0  0  0  0  0  0  0  0  0  0  0  0
  -10.0864   30.2843   17.9997 O   0  0  0  0  0  0  0  0  0  0  0  0
   -9.5875   27.9586   13.9250 O   0  0  0  0  0  0  0  0  0  0  0  0
   -7.6778   32.2939   14.2890 O   0  0  0  0  0  0  0  0  0  0  0  0
   -8.9497   33.5963   19.2203 O   0  0  0  0  0  0  0  0  0  0  0  0
   -9.1970   28.0582   13.0399 H   0  0  0  0  0  0  0  0  0  0  0  0
   -7.5808   33.0212   14.9470 H   0  0  0  0  0  0  0  0  0  0  0  0
   -9.2088   33.3854   20.1328 H   0  0  0  0  0  0  0  0  0  0  0  0
   -9.7425   31.1096   21.2668 C   0  0  0  0  0  0  0  0  0  0  0  0
  -10.3424   30.9688   22.5224 C   0  0  0  0  0  0  0  0  0  0  0  0
  -11.7264   31.0232   22.6180 C   0  0  0  0  0  0  0  0  0  0  0  0
  -12.5032   31.2257   21.4795 C   0  0  0  0  0  0  0  0  0  0  0  0
  -11.9172   31.3665   20.2283 C   0  0  0  0  0  0  0  0  0  0  0  0
  -10.5240   31.2958   20.1110 C   0  0  0  0  0  0  0  0  0  0  0  0
  -13.8635   31.2802   21.5855 O   0  0  0  0  0  0  0  0  0  0  0  0
  -12.3749   30.8804   23.8125 O   0  0  0  0  0  0  0  0  0  0  0  0
  -14.0434   31.1658   22.5403 H   0  0  0  0  0  0  0  0  0  0  0  0
  -11.7095   30.7413   24.5086 H   0  0  0  0  0  0  0  0  0  0  0  0
 18 19  2  0  0  0
 19 20  1  0  0  0
 20 21  2  0  0  0
 21 22  1  0  0  0
 22 23  2  0  0  0
 18 23  1  0  0  0
 23  1  1  0  0  0
  1  2  2  0  0  0
  2  3  1  0  0  0
  3  4  2  0  0  0
  3  5  1  0  0  0
  5  6  2  0  0  0
  6  7  1  0  0  0
  7  8  2  0  0  0
  8  9  1  0  0  0
  9 10  2  0  0  0
  5 10  1  0  0  0
 10 11  1  0  0  0
  1 11  1  0  0  0
  8 12  1  0  0  0
  6 13  1  0  0  0
  2 14  1  0  0  0
 21 24  1  0  0  0
 20 25  1  0  0  0
 12 15  1  0  0  0
 13 16  1  0  0  0
 14 17  1  0  0  0
 24 26  1  0  0  0
 25 27  1  0  0  0
M  END
> <minimizedAffinity>
-4.82599

$$$$
