Quercetin


 27 29  0  0  0  0  0  0  0  0999 V2000
   -5.3145   20.2178   13.4539 C   0  0  0  0  0  0  0  0  0  0  0  0
   -4.6071   20.8823   12.5174 C   0  0  0  0  0  0  0  0  0  0  0  0
   -4.9077   20.5978   11.0882 C   0  0  0  0  0  0  0  0  0  0  0  0
   -4.3345   21.1605   10.1581 O   0  0  0  0  0  0  0  0  0  0  0  0
   -5.9425   19.5962   10.8069 C   0  0  0  0  0  0  0  0  0  0  0  0
   -6.3040   19.2650    9.4952 C   0  0  0  0  0  0  0  0  0  0  0  0
   -7.2873   18.3083    9.2557 C   0  0  0  0  0  0  0  0  0  0  0  0
   -7.9029   17.6850   10.3372 C   0  0  0  0  0  0  0  0  0  0  0  0
   -7.5525   18.0065   11.6461 C   0  0  0  0  0  0  0  0  0  0  0  0
   -6.5699   18.9690   11.8793 C   0  0  0  0  0  0  0  0  0  0  0  0
   -6.2737   19.2549   13.1870 O   0  0  0  0  0  0  0  0  0  0  0  0
   -8.8702   16.7419   10.1533 O   0  0  0  0  0  0  0  0  0  0  0  0
   -5.7321   19.8456    8.3947 O   0  0  0  0  0  0  0  0  0  0  0  0
   -3.6175   21.8115   12.7873 O   0  0  0  0  0  0  0  0  0  0  0  0
   -9.0117   16.6197    9.1989 H   0  0  0  0  0  0  0  0  0  0  0  0
   -5.0566   20.4920    8.7064 H   0  0  0  0  0  0  0  0  0  0  0  0
   -3.3976   21.7781   13.7333 H   0  0  0  0  0  0  0  0  0  0  0  0
   -4.3754   19.5673   15.6777 C   0  0  0  0  0  0  0  0  0  0  0  0
   -4.2270   19.7697   17.0536 C   0  0  0  0  0  0  0  0  0  0  0  0
   -4.8316   20.8725   17.6418 C   0  0  0  0  0  0  0  0  0  0  0  0
   -5.5661   21.7685   16.8683 C   0  0  0  0  0  0  0  0  0  0  0  0
   -5.7196   21.5763   15.5014 C   0  0  0  0  0  0  0  0  0  0  0  0
   -5.1321   20.4597   14.8951 C   0  0  0  0  0  0  0  0  0  0  0  0
   -6.1543   22.8513   17.4568 O   0  0  0  0  0  0  0  0  0  0  0  0
   -4.7355   21.1207   18.9823 O   0  0  0  0  0  0  0  0  0  0  0  0
   -5.9096   22.7843   18.4016 H   0  0  0  0  0  0  0  0  0  0  0  0
   -4.2033   20.4144   19.3880 H   0  0  0  0  0  0  0  0  0  0  0  0
 18 19  2  0  0  0
 19 20  1  0  0  0
 20 21  2  0  0  0
 21 22  1  0  0  0
 22 23  2  0  0  0
 18 23  1  0  0  0
 23  1  1  0  0  0
  1  2  2  0  0  0
  2  3  1  0  0  0
  3  4  2  0  0  0
  3  5  1  0  0  0
  5  6  2  0  0  0
  6  7  1  0  0  0
  7  8  2  0  0  0
  8  9  1  0  0  0
  9 10  2  0  0  0
  5 10  1  0  0  0
 10 11  1  0  0  0
  1 11  1  0  0  0
  8 12  1  0  0  0
  6 13  1  0  0  0
  2 14  1  0  0  0
 21 24  1  0  0  0
 20 25  1  0  0  0
 12 15  1  0  0  0
 13 16  1  0  0  0
 14 17  1  0  0  0
 24 26  1  0  0  0
 25 27  1  0  0  0
M  END
> <minimizedAffinity>
-6.74712

$$$$
Quercetin


 27 29  0  0  0  0  0  0  0  0999 V2000
   -4.9807   20.8271   13.2777 C   0  0  0  0  0  0  0  0  0  0  0  0
   -5.8810   20.1099   12.5749 C   0  0  0  0  0  0  0  0  0  0  0  0
   -5.7566   20.1006   11.0922 C   0  0  0  0  0  0  0  0  0  0  0  0
   -6.5129   19.4661   10.3604 O   0  0  0  0  0  0  0  0  0  0  0  0
   -4.6700   20.8932   10.5053 C   0  0  0  0  0  0  0  0  0  0  0  0
   -4.4641   20.9418    9.1211 C   0  0  0  0  0  0  0  0  0  0  0  0
   -3.4272   21.7045    8.5895 C   0  0  0  0  0  0  0  0  0  0  0  0
   -2.6012   22.4188    9.4524 C   0  0  0  0  0  0  0  0  0  0  0  0
   -2.7955   22.3777   10.8307 C   0  0  0  0  0  0  0  0  0  0  0  0
   -3.8333   21.6082   11.3572 C   0  0  0  0  0  0  0  0  0  0  0  0
   -3.9707   21.5943   12.7212 O   0  0  0  0  0  0  0  0  0  0  0  0
   -1.5736   23.1800    8.9795 O   0  0  0  0  0  0  0  0  0  0  0  0
   -5.2452   20.2602    8.2263 O   0  0  0  0  0  0  0  0  0  0  0  0
   -6.9168   19.3801   13.1317 O   0  0  0  0  0  0  0  0  0  0  0  0
   -1.5561   23.1155    8.0093 H   0  0  0  0  0  0  0  0  0  0  0  0
   -5.9355   19.7722    8.7329 H   0  0  0  0  0  0  0  0  0  0  0  0
   -6.9958   19.6053   14.0737 H   0  0  0  0  0  0  0  0  0  0  0  0
   -4.3879   19.8253   15.4903 C   0  0  0  0  0  0  0  0  0  0  0  0
   -4.4166   19.8346   16.8886 C   0  0  0  0  0  0  0  0  0  0  0  0
   -5.0351   20.8914   17.5431 C   0  0  0  0  0  0  0  0  0  0  0  0
   -5.6089   21.9312   16.8150 C   0  0  0  0  0  0  0  0  0  0  0  0
   -5.5858   21.9312   15.4264 C   0  0  0  0  0  0  0  0  0  0  0  0
   -4.9825   20.8645   14.7500 C   0  0  0  0  0  0  0  0  0  0  0  0
   -6.2123   22.9670   17.4691 O   0  0  0  0  0  0  0  0  0  0  0  0
   -5.1084   20.9542   18.9064 O   0  0  0  0  0  0  0  0  0  0  0  0
   -6.1019   22.7595   18.4188 H   0  0  0  0  0  0  0  0  0  0  0  0
   -4.6748   20.1647   19.2740 H   0  0  0  0  0  0  0  0  0  0  0  0
 18 19  2  0  0  0
 19 20  1  0  0  0
 20 21  2  0  0  0
 21 22  1  0  0  0
 22 23  2  0  0  0
 18 23  1  0  0  0
 23  1  1  0  0  0
  1  2  2  0  0  0
  2  3  1  0  0  0
  3  4  2  0  0  0
  3  5  1  0  0  0
  5  6  2  0  0  0
  6  7  1  0  0  0
  7  8  2  0  0  0
  8  9  1  0  0  0
  9 10  2  0  0  0
  5 10  1  0  0  0
 10 11  1  0  0  0
  1 11  1  0  0  0
  8 12  1  0  0  0
  6 13  1  0  0  0
  2 14  1  0  0  0
 21 24  1  0  0  0
 20 25  1  0  0  0
 12 15  1  0  0  0
 13 16  1  0  0  0
 14 17  1  0  0  0
 24 26  1  0  0  0
 25 27  1  0  0  0
M  END
> <minimizedAffinity>
-6.54359

$$$$
Quercetin


 27 29  0  0  0  0  0  0  0  0999 V2000
   -4.8324   20.9096   13.2864 C   0  0  0  0  0  0  0  0  0  0  0  0
   -3.9408   21.6685   12.6171 C   0  0  0  0  0  0  0  0  0  0  0  0
   -3.9521   21.6050   11.1306 C   0  0  0  0  0  0  0  0  0  0  0  0
   -3.1949   22.2684   10.4259 O   0  0  0  0  0  0  0  0  0  0  0  0
   -4.9246   20.7015   10.5052 C   0  0  0  0  0  0  0  0  0  0  0  0
   -5.0199   20.5778    9.1136 C   0  0  0  0  0  0  0  0  0  0  0  0
   -5.9496   19.7104    8.5455 C   0  0  0  0  0  0  0  0  0  0  0  0
   -6.7798   18.9673    9.3796 C   0  0  0  0  0  0  0  0  0  0  0  0
   -6.6950   19.0823   10.7648 C   0  0  0  0  0  0  0  0  0  0  0  0
   -5.7646   19.9564   11.3275 C   0  0  0  0  0  0  0  0  0  0  0  0
   -5.7331   20.0389   12.6957 O   0  0  0  0  0  0  0  0  0  0  0  0
   -7.7049   18.1047    8.8705 O   0  0  0  0  0  0  0  0  0  0  0  0
   -4.2293   21.2833    8.2461 O   0  0  0  0  0  0  0  0  0  0  0  0
   -3.0115   22.5040   13.2118 O   0  0  0  0  0  0  0  0  0  0  0  0
   -7.6534   18.1266    7.8996 H   0  0  0  0  0  0  0  0  0  0  0  0
   -3.6204   21.8474    8.7774 H   0  0  0  0  0  0  0  0  0  0  0  0
   -2.9869   22.3260   14.1668 H   0  0  0  0  0  0  0  0  0  0  0  0
   -5.6059   21.9917   15.4033 C   0  0  0  0  0  0  0  0  0  0  0  0
   -5.6816   22.0421   16.7990 C   0  0  0  0  0  0  0  0  0  0  0  0
   -5.0956   21.0267   17.5429 C   0  0  0  0  0  0  0  0  0  0  0  0
   -4.4513   19.9690   16.9053 C   0  0  0  0  0  0  0  0  0  0  0  0
   -4.3706   19.9098   15.5201 C   0  0  0  0  0  0  0  0  0  0  0  0
   -4.9399   20.9345   14.7550 C   0  0  0  0  0  0  0  0  0  0  0  0
   -3.8807   18.9743   17.6468 O   0  0  0  0  0  0  0  0  0  0  0  0
   -5.1232   21.0230   18.9093 O   0  0  0  0  0  0  0  0  0  0  0  0
   -4.0653   19.2194   18.5757 H   0  0  0  0  0  0  0  0  0  0  0  0
   -5.5966   21.8184   19.2091 H   0  0  0  0  0  0  0  0  0  0  0  0
 18 19  2  0  0  0
 19 20  1  0  0  0
 20 21  2  0  0  0
 21 22  1  0  0  0
 22 23  2  0  0  0
 18 23  1  0  0  0
 23  1  1  0  0  0
  1  2  2  0  0  0
  2  3  1  0  0  0
  3  4  2  0  0  0
  3  5  1  0  0  0
  5  6  2  0  0  0
  6  7  1  0  0  0
  7  8  2  0  0  0
  8  9  1  0  0  0
  9 10  2  0  0  0
  5 10  1  0  0  0
 10 11  1  0  0  0
  1 11  1  0  0  0
  8 12  1  0  0  0
  6 13  1  0  0  0
  2 14  1  0  0  0
 21 24  1  0  0  0
 20 25  1  0  0  0
 12 15  1  0  0  0
 13 16  1  0  0  0
 14 17  1  0  0  0
 24 26  1  0  0  0
 25 27  1  0  0  0
M  END
> <minimizedAffinity>
-6.36744

$$$$
Quercetin


 27 29  0  0  0  0  0  0  0  0999 V2000
   -5.6255   19.8651   13.2444 C   0  0  0  0  0  0  0  0  0  0  0  0
   -5.1616   20.5913   12.2069 C   0  0  0  0  0  0  0  0  0  0  0  0
   -5.5213   20.1480   10.8328 C   0  0  0  0  0  0  0  0  0  0  0  0
   -5.1659   20.7477    9.8208 O   0  0  0  0  0  0  0  0  0  0  0  0
   -6.3410   18.9369   10.7118 C   0  0  0  0  0  0  0  0  0  0  0  0
   -6.7396   18.4440    9.4632 C   0  0  0  0  0  0  0  0  0  0  0  0
   -7.5148   17.2904    9.3761 C   0  0  0  0  0  0  0  0  0  0  0  0
   -7.8852   16.6338   10.5460 C   0  0  0  0  0  0  0  0  0  0  0  0
   -7.4956   17.1147   11.7935 C   0  0  0  0  0  0  0  0  0  0  0  0
   -6.7227   18.2734   11.8741 C   0  0  0  0  0  0  0  0  0  0  0  0
   -6.3785   18.7084   13.1279 O   0  0  0  0  0  0  0  0  0  0  0  0
   -8.6429   15.5008   10.5117 O   0  0  0  0  0  0  0  0  0  0  0  0
   -6.4044   19.0485    8.2810 O   0  0  0  0  0  0  0  0  0  0  0  0
   -4.3716   21.7215   12.3251 O   0  0  0  0  0  0  0  0  0  0  0  0
   -8.8398   15.2831    9.5846 H   0  0  0  0  0  0  0  0  0  0  0  0
   -5.8564   19.8411    8.4876 H   0  0  0  0  0  0  0  0  0  0  0  0
   -4.0662   21.8030   13.2440 H   0  0  0  0  0  0  0  0  0  0  0  0
   -6.2121   21.1624   15.2995 C   0  0  0  0  0  0  0  0  0  0  0  0
   -5.9566   21.5546   16.6174 C   0  0  0  0  0  0  0  0  0  0  0  0
   -4.8611   21.0177   17.2802 C   0  0  0  0  0  0  0  0  0  0  0  0
   -4.0361   20.0939   16.6425 C   0  0  0  0  0  0  0  0  0  0  0  0
   -4.2811   19.6981   15.3340 C   0  0  0  0  0  0  0  0  0  0  0  0
   -5.3707   20.2433   14.6446 C   0  0  0  0  0  0  0  0  0  0  0  0
   -2.9629   19.5701   17.3047 O   0  0  0  0  0  0  0  0  0  0  0  0
   -4.5492   21.3684   18.5637 O   0  0  0  0  0  0  0  0  0  0  0  0
   -2.9939   19.9804   18.1923 H   0  0  0  0  0  0  0  0  0  0  0  0
   -5.2037   22.0189   18.8721 H   0  0  0  0  0  0  0  0  0  0  0  0
 18 19  2  0  0  0
 19 20  1  0  0  0
 20 21  2  0  0  0
 21 22  1  0  0  0
 22 23  2  0  0  0
 18 23  1  0  0  0
 23  1  1  0  0  0
  1  2  2  0  0  0
  2  3  1  0  0  0
  3  4  2  0  0  0
  3  5  1  0  0  0
  5  6  2  0  0  0
  6  7  1  0  0  0
  7  8  2  0  0  0
  8  9  1  0  0  0
  9 10  2  0  0  0
  5 10  1  0  0  0
 10 11  1  0  0  0
  1 11  1  0  0  0
  8 12  1  0  0  0
  6 13  1  0  0  0
  2 14  1  0  0  0
 21 24  1  0  0  0
 20 25  1  0  0  0
 12 15  1  0  0  0
 13 16  1  0  0  0
 14 17  1  0  0  0
 24 26  1  0  0  0
 25 27  1  0  0  0
M  END
> <minimizedAffinity>
-6.18503

$$$$
Quercetin


 27 29  0  0  0  0  0  0  0  0999 V2000
   -4.7544   21.4313   13.8739 C   0  0  0  0  0  0  0  0  0  0  0  0
   -5.1513   22.5485   14.5167 C   0  0  0  0  0  0  0  0  0  0  0  0
   -5.3537   22.4682   15.9886 C   0  0  0  0  0  0  0  0  0  0  0  0
   -5.6966   23.4308   16.6712 O   0  0  0  0  0  0  0  0  0  0  0  0
   -5.1238   21.1673   16.6273 C   0  0  0  0  0  0  0  0  0  0  0  0
   -5.2788   20.9915   18.0079 C   0  0  0  0  0  0  0  0  0  0  0  0
   -5.0575   19.7452   18.5886 C   0  0  0  0  0  0  0  0  0  0  0  0
   -4.6829   18.6777   17.7779 C   0  0  0  0  0  0  0  0  0  0  0  0
   -4.5248   18.8403   16.4040 C   0  0  0  0  0  0  0  0  0  0  0  0
   -4.7437   20.0924   15.8290 C   0  0  0  0  0  0  0  0  0  0  0  0
   -4.5615   20.1981   14.4743 O   0  0  0  0  0  0  0  0  0  0  0  0
   -4.4557   17.4388   18.3000 O   0  0  0  0  0  0  0  0  0  0  0  0
   -5.6454   22.0053   18.8524 O   0  0  0  0  0  0  0  0  0  0  0  0
   -5.3868   23.7685   13.9071 O   0  0  0  0  0  0  0  0  0  0  0  0
   -4.6016   17.4718   19.2609 H   0  0  0  0  0  0  0  0  0  0  0  0
   -5.7736   22.8206   18.3137 H   0  0  0  0  0  0  0  0  0  0  0  0
   -5.3917   23.6480   12.9428 H   0  0  0  0  0  0  0  0  0  0  0  0
   -3.3557   22.0867   11.9080 C   0  0  0  0  0  0  0  0  0  0  0  0
   -3.1049   22.1050   10.5322 C   0  0  0  0  0  0  0  0  0  0  0  0
   -3.9756   21.4400    9.6794 C   0  0  0  0  0  0  0  0  0  0  0  0
   -5.0766   20.7566   10.1906 C   0  0  0  0  0  0  0  0  0  0  0  0
   -5.3346   20.7326   11.5550 C   0  0  0  0  0  0  0  0  0  0  0  0
   -4.4772   21.4131   12.4277 C   0  0  0  0  0  0  0  0  0  0  0  0
   -5.9251   20.1037    9.3429 O   0  0  0  0  0  0  0  0  0  0  0  0
   -3.7942   21.4297    8.3249 O   0  0  0  0  0  0  0  0  0  0  0  0
   -5.5478   20.2498    8.4522 H   0  0  0  0  0  0  0  0  0  0  0  0
   -2.9970   21.9477    8.1178 H   0  0  0  0  0  0  0  0  0  0  0  0
 18 19  2  0  0  0
 19 20  1  0  0  0
 20 21  2  0  0  0
 21 22  1  0  0  0
 22 23  2  0  0  0
 18 23  1  0  0  0
 23  1  1  0  0  0
  1  2  2  0  0  0
  2  3  1  0  0  0
  3  4  2  0  0  0
  3  5  1  0  0  0
  5  6  2  0  0  0
  6  7  1  0  0  0
  7  8  2  0  0  0
  8  9  1  0  0  0
  9 10  2  0  0  0
  5 10  1  0  0  0
 10 11  1  0  0  0
  1 11  1  0  0  0
  8 12  1  0  0  0
  6 13  1  0  0  0
  2 14  1  0  0  0
 21 24  1  0  0  0
 20 25  1  0  0  0
 12 15  1  0  0  0
 13 16  1  0  0  0
 14 17  1  0  0  0
 24 26  1  0  0  0
 25 27  1  0  0  0
M  END
> <minimizedAffinity>
-6.17855

$$$$
