Quercetin


 27 29  0  0  0  0  0  0  0  0999 V2000
    2.3381   23.2934    8.8804 C   0  0  0  0  0  0  0  0  0  0  0  0
    2.1065   22.5755    7.7624 C   0  0  0  0  0  0  0  0  0  0  0  0
    3.1030   22.6643    6.6611 C   0  0  0  0  0  0  0  0  0  0  0  0
    2.9966   22.0380    5.6092 O   0  0  0  0  0  0  0  0  0  0  0  0
    4.2568   23.5465    6.8700 C   0  0  0  0  0  0  0  0  0  0  0  0
    5.2539   23.6912    5.8975 C   0  0  0  0  0  0  0  0  0  0  0  0
    6.3371   24.5377    6.1196 C   0  0  0  0  0  0  0  0  0  0  0  0
    6.4132   25.2389    7.3194 C   0  0  0  0  0  0  0  0  0  0  0  0
    5.4284   25.1028    8.2945 C   0  0  0  0  0  0  0  0  0  0  0  0
    4.3480   24.2497    8.0676 C   0  0  0  0  0  0  0  0  0  0  0  0
    3.4148   24.1446    9.0665 O   0  0  0  0  0  0  0  0  0  0  0  0
    7.4538   26.0798    7.5825 O   0  0  0  0  0  0  0  0  0  0  0  0
    5.2301   23.0267    4.7002 O   0  0  0  0  0  0  0  0  0  0  0  0
    1.0062   21.7603    7.5616 O   0  0  0  0  0  0  0  0  0  0  0  0
    8.0598   26.0764    6.8218 H   0  0  0  0  0  0  0  0  0  0  0  0
    4.4149   22.4735    4.6739 H   0  0  0  0  0  0  0  0  0  0  0  0
    0.3559   21.9225    8.2652 H   0  0  0  0  0  0  0  0  0  0  0  0
    0.1466   22.7037    9.9294 C   0  0  0  0  0  0  0  0  0  0  0  0
   -0.7230   22.6815   11.0245 C   0  0  0  0  0  0  0  0  0  0  0  0
   -0.2879   23.1900   12.2411 C   0  0  0  0  0  0  0  0  0  0  0  0
    1.0003   23.7046   12.3686 C   0  0  0  0  0  0  0  0  0  0  0  0
    1.8713   23.7313   11.2872 C   0  0  0  0  0  0  0  0  0  0  0  0
    1.4428   23.2396   10.0485 C   0  0  0  0  0  0  0  0  0  0  0  0
    1.4187   24.1996   13.5705 O   0  0  0  0  0  0  0  0  0  0  0  0
   -1.0921   23.2092   13.3460 O   0  0  0  0  0  0  0  0  0  0  0  0
    0.6568   24.0722   14.1708 H   0  0  0  0  0  0  0  0  0  0  0  0
   -1.9539   22.8271   13.1053 H   0  0  0  0  0  0  0  0  0  0  0  0
 18 19  2  0  0  0
 19 20  1  0  0  0
 20 21  2  0  0  0
 21 22  1  0  0  0
 22 23  2  0  0  0
 18 23  1  0  0  0
 23  1  1  0  0  0
  1  2  2  0  0  0
  2  3  1  0  0  0
  3  4  2  0  0  0
  3  5  1  0  0  0
  5  6  2  0  0  0
  6  7  1  0  0  0
  7  8  2  0  0  0
  8  9  1  0  0  0
  9 10  2  0  0  0
  5 10  1  0  0  0
 10 11  1  0  0  0
  1 11  1  0  0  0
  8 12  1  0  0  0
  6 13  1  0  0  0
  2 14  1  0  0  0
 21 24  1  0  0  0
 20 25  1  0  0  0
 12 15  1  0  0  0
 13 16  1  0  0  0
 14 17  1  0  0  0
 24 26  1  0  0  0
 25 27  1  0  0  0
M  END
> <minimizedAffinity>
-8.10270

$$$$
Quercetin


 27 29  0  0  0  0  0  0  0  0999 V2000
    0.8652   23.0786    9.1430 C   0  0  0  0  0  0  0  0  0  0  0  0
    1.8457   23.6007    8.3780 C   0  0  0  0  0  0  0  0  0  0  0  0
    2.2169   22.8745    7.1336 C   0  0  0  0  0  0  0  0  0  0  0  0
    3.0830   23.2730    6.3582 O   0  0  0  0  0  0  0  0  0  0  0  0
    1.4970   21.6291    6.8437 C   0  0  0  0  0  0  0  0  0  0  0  0
    1.7669   20.8779    5.6931 C   0  0  0  0  0  0  0  0  0  0  0  0
    1.0714   19.6975    5.4432 C   0  0  0  0  0  0  0  0  0  0  0  0
    0.1072   19.2745    6.3534 C   0  0  0  0  0  0  0  0  0  0  0  0
   -0.1706   20.0133    7.5006 C   0  0  0  0  0  0  0  0  0  0  0  0
    0.5265   21.1972    7.7429 C   0  0  0  0  0  0  0  0  0  0  0  0
    0.2037   21.8904    8.8808 O   0  0  0  0  0  0  0  0  0  0  0  0
   -0.5992   18.1256    6.1526 O   0  0  0  0  0  0  0  0  0  0  0  0
    2.7038   21.2460    4.7646 O   0  0  0  0  0  0  0  0  0  0  0  0
    2.5362   24.7650    8.6660 O   0  0  0  0  0  0  0  0  0  0  0  0
   -0.3041   17.7173    5.3208 H   0  0  0  0  0  0  0  0  0  0  0  0
    3.1192   22.0873    5.0665 H   0  0  0  0  0  0  0  0  0  0  0  0
    2.3289   25.0432    9.5737 H   0  0  0  0  0  0  0  0  0  0  0  0
   -0.7967   24.5041   10.3498 C   0  0  0  0  0  0  0  0  0  0  0  0
   -1.2394   25.1669   11.4991 C   0  0  0  0  0  0  0  0  0  0  0  0
   -0.4983   25.0574   12.6680 C   0  0  0  0  0  0  0  0  0  0  0  0
    0.6635   24.2893   12.6954 C   0  0  0  0  0  0  0  0  0  0  0  0
    1.1116   23.6275   11.5596 C   0  0  0  0  0  0  0  0  0  0  0  0
    0.3865   23.7419   10.3676 C   0  0  0  0  0  0  0  0  0  0  0  0
    1.3833   24.1863   13.8513 O   0  0  0  0  0  0  0  0  0  0  0  0
   -0.8692   25.6898   13.8214 O   0  0  0  0  0  0  0  0  0  0  0  0
    0.8841   24.7180   14.5033 H   0  0  0  0  0  0  0  0  0  0  0  0
   -1.6874   26.1875   13.6493 H   0  0  0  0  0  0  0  0  0  0  0  0
 18 19  2  0  0  0
 19 20  1  0  0  0
 20 21  2  0  0  0
 21 22  1  0  0  0
 22 23  2  0  0  0
 18 23  1  0  0  0
 23  1  1  0  0  0
  1  2  2  0  0  0
  2  3  1  0  0  0
  3  4  2  0  0  0
  3  5  1  0  0  0
  5  6  2  0  0  0
  6  7  1  0  0  0
  7  8  2  0  0  0
  8  9  1  0  0  0
  9 10  2  0  0  0
  5 10  1  0  0  0
 10 11  1  0  0  0
  1 11  1  0  0  0
  8 12  1  0  0  0
  6 13  1  0  0  0
  2 14  1  0  0  0
 21 24  1  0  0  0
 20 25  1  0  0  0
 12 15  1  0  0  0
 13 16  1  0  0  0
 14 17  1  0  0  0
 24 26  1  0  0  0
 25 27  1  0  0  0
M  END
> <minimizedAffinity>
-7.95278

$$$$
Quercetin


 27 29  0  0  0  0  0  0  0  0999 V2000
    3.1161   23.4852    7.9313 C   0  0  0  0  0  0  0  0  0  0  0  0
    2.1097   22.7998    7.3513 C   0  0  0  0  0  0  0  0  0  0  0  0
    0.9275   22.4604    8.1886 C   0  0  0  0  0  0  0  0  0  0  0  0
   -0.0497   21.8552    7.7541 O   0  0  0  0  0  0  0  0  0  0  0  0
    0.9572   22.8828    9.5936 C   0  0  0  0  0  0  0  0  0  0  0  0
   -0.1105   22.6190   10.4604 C   0  0  0  0  0  0  0  0  0  0  0  0
   -0.0556   23.0280   11.7905 C   0  0  0  0  0  0  0  0  0  0  0  0
    1.0751   23.6995   12.2460 C   0  0  0  0  0  0  0  0  0  0  0  0
    2.1429   23.9683   11.3934 C   0  0  0  0  0  0  0  0  0  0  0  0
    2.0798   23.5598   10.0609 C   0  0  0  0  0  0  0  0  0  0  0  0
    3.1535   23.8617    9.2636 O   0  0  0  0  0  0  0  0  0  0  0  0
    1.1756   24.1190   13.5394 O   0  0  0  0  0  0  0  0  0  0  0  0
   -1.2462   21.9627   10.0669 O   0  0  0  0  0  0  0  0  0  0  0  0
    2.0949   22.3856    6.0308 O   0  0  0  0  0  0  0  0  0  0  0  0
    0.3656   23.8665   14.0148 H   0  0  0  0  0  0  0  0  0  0  0  0
   -1.1494   21.7284    9.1145 H   0  0  0  0  0  0  0  0  0  0  0  0
    2.9791   22.5098    5.6472 H   0  0  0  0  0  0  0  0  0  0  0  0
    4.4407   25.2499    6.7558 C   0  0  0  0  0  0  0  0  0  0  0  0
    5.5528   25.6582    6.0124 C   0  0  0  0  0  0  0  0  0  0  0  0
    6.5360   24.7276    5.7038 C   0  0  0  0  0  0  0  0  0  0  0  0
    6.4187   23.4094    6.1387 C   0  0  0  0  0  0  0  0  0  0  0  0
    5.3183   22.9940    6.8773 C   0  0  0  0  0  0  0  0  0  0  0  0
    4.3087   23.9147    7.1816 C   0  0  0  0  0  0  0  0  0  0  0  0
    7.3930   22.5031    5.8319 O   0  0  0  0  0  0  0  0  0  0  0  0
    7.6407   25.0589    4.9707 O   0  0  0  0  0  0  0  0  0  0  0  0
    8.0558   23.0128    5.3240 H   0  0  0  0  0  0  0  0  0  0  0  0
    7.5819   26.0011    4.7352 H   0  0  0  0  0  0  0  0  0  0  0  0
 18 19  2  0  0  0
 19 20  1  0  0  0
 20 21  2  0  0  0
 21 22  1  0  0  0
 22 23  2  0  0  0
 18 23  1  0  0  0
 23  1  1  0  0  0
  1  2  2  0  0  0
  2  3  1  0  0  0
  3  4  2  0  0  0
  3  5  1  0  0  0
  5  6  2  0  0  0
  6  7  1  0  0  0
  7  8  2  0  0  0
  8  9  1  0  0  0
  9 10  2  0  0  0
  5 10  1  0  0  0
 10 11  1  0  0  0
  1 11  1  0  0  0
  8 12  1  0  0  0
  6 13  1  0  0  0
  2 14  1  0  0  0
 21 24  1  0  0  0
 20 25  1  0  0  0
 12 15  1  0  0  0
 13 16  1  0  0  0
 14 17  1  0  0  0
 24 26  1  0  0  0
 25 27  1  0  0  0
M  END
> <minimizedAffinity>
-7.46100

$$$$
Quercetin


 27 29  0  0  0  0  0  0  0  0999 V2000
    1.7515   24.4621    9.6267 C   0  0  0  0  0  0  0  0  0  0  0  0
    1.9426   23.9312   10.8517 C   0  0  0  0  0  0  0  0  0  0  0  0
    1.0474   24.3820   11.9514 C   0  0  0  0  0  0  0  0  0  0  0  0
    1.1250   23.9486   13.0987 O   0  0  0  0  0  0  0  0  0  0  0  0
    0.0333   25.3896   11.6204 C   0  0  0  0  0  0  0  0  0  0  0  0
   -0.8623   25.8712   12.5831 C   0  0  0  0  0  0  0  0  0  0  0  0
   -1.8133   26.8301   12.2434 C   0  0  0  0  0  0  0  0  0  0  0  0
   -1.8592   27.3042   10.9357 C   0  0  0  0  0  0  0  0  0  0  0  0
   -0.9745   26.8325    9.9693 C   0  0  0  0  0  0  0  0  0  0  0  0
   -0.0270   25.8685   10.3150 C   0  0  0  0  0  0  0  0  0  0  0  0
    0.8100   25.4310    9.3213 O   0  0  0  0  0  0  0  0  0  0  0  0
   -2.7717   28.2433   10.5554 O   0  0  0  0  0  0  0  0  0  0  0  0
   -0.8624   25.4408   13.8832 O   0  0  0  0  0  0  0  0  0  0  0  0
    2.9138   22.9960   11.1640 O   0  0  0  0  0  0  0  0  0  0  0  0
   -3.3190   28.4782   11.3242 H   0  0  0  0  0  0  0  0  0  0  0  0
   -0.1431   24.7748   13.9848 H   0  0  0  0  0  0  0  0  0  0  0  0
    3.5332   22.9179   10.4192 H   0  0  0  0  0  0  0  0  0  0  0  0
    3.7292   24.7374    8.1222 C   0  0  0  0  0  0  0  0  0  0  0  0
    4.4723   24.3756    6.9940 C   0  0  0  0  0  0  0  0  0  0  0  0
    4.0335   23.3182    6.2084 C   0  0  0  0  0  0  0  0  0  0  0  0
    2.8750   22.6229    6.5476 C   0  0  0  0  0  0  0  0  0  0  0  0
    2.1300   22.9744    7.6657 C   0  0  0  0  0  0  0  0  0  0  0  0
    2.5479   24.0498    8.4586 C   0  0  0  0  0  0  0  0  0  0  0  0
    2.4541   21.5827    5.7694 O   0  0  0  0  0  0  0  0  0  0  0  0
    4.7066   22.9226    5.0867 O   0  0  0  0  0  0  0  0  0  0  0  0
    3.1240   21.5161    5.0596 H   0  0  0  0  0  0  0  0  0  0  0  0
    5.4829   23.4984    4.9753 H   0  0  0  0  0  0  0  0  0  0  0  0
 18 19  2  0  0  0
 19 20  1  0  0  0
 20 21  2  0  0  0
 21 22  1  0  0  0
 22 23  2  0  0  0
 18 23  1  0  0  0
 23  1  1  0  0  0
  1  2  2  0  0  0
  2  3  1  0  0  0
  3  4  2  0  0  0
  3  5  1  0  0  0
  5  6  2  0  0  0
  6  7  1  0  0  0
  7  8  2  0  0  0
  8  9  1  0  0  0
  9 10  2  0  0  0
  5 10  1  0  0  0
 10 11  1  0  0  0
  1 11  1  0  0  0
  8 12  1  0  0  0
  6 13  1  0  0  0
  2 14  1  0  0  0
 21 24  1  0  0  0
 20 25  1  0  0  0
 12 15  1  0  0  0
 13 16  1  0  0  0
 14 17  1  0  0  0
 24 26  1  0  0  0
 25 27  1  0  0  0
M  END
> <minimizedAffinity>
-7.42366

$$$$
Quercetin


 27 29  0  0  0  0  0  0  0  0999 V2000
    0.4949   22.1918    8.8346 C   0  0  0  0  0  0  0  0  0  0  0  0
    1.6622   22.6252    9.3529 C   0  0  0  0  0  0  0  0  0  0  0  0
    1.6472   23.1725   10.7364 C   0  0  0  0  0  0  0  0  0  0  0  0
    2.6572   23.5769   11.3079 O   0  0  0  0  0  0  0  0  0  0  0  0
    0.3528   23.2168   11.4262 C   0  0  0  0  0  0  0  0  0  0  0  0
    0.2358   23.7055   12.7332 C   0  0  0  0  0  0  0  0  0  0  0  0
   -1.0053   23.7397   13.3640 C   0  0  0  0  0  0  0  0  0  0  0  0
   -2.1266   23.2841   12.6768 C   0  0  0  0  0  0  0  0  0  0  0  0
   -2.0227   22.7952   11.3771 C   0  0  0  0  0  0  0  0  0  0  0  0
   -0.7758   22.7595   10.7524 C   0  0  0  0  0  0  0  0  0  0  0  0
   -0.7301   22.2569    9.4777 O   0  0  0  0  0  0  0  0  0  0  0  0
   -3.3628   23.2983   13.2519 O   0  0  0  0  0  0  0  0  0  0  0  0
    1.3040   24.1661   13.4559 O   0  0  0  0  0  0  0  0  0  0  0  0
    2.8774   22.6003    8.6909 O   0  0  0  0  0  0  0  0  0  0  0  0
   -3.2863   23.6611   14.1510 H   0  0  0  0  0  0  0  0  0  0  0  0
    2.1093   24.0906   12.8928 H   0  0  0  0  0  0  0  0  0  0  0  0
    2.7266   22.3906    7.7541 H   0  0  0  0  0  0  0  0  0  0  0  0
    0.5289   22.3860    6.3423 C   0  0  0  0  0  0  0  0  0  0  0  0
    0.4101   21.8259    5.0662 C   0  0  0  0  0  0  0  0  0  0  0  0
    0.1766   20.4624    4.9476 C   0  0  0  0  0  0  0  0  0  0  0  0
    0.0729   19.6646    6.0848 C   0  0  0  0  0  0  0  0  0  0  0  0
    0.1891   20.2111    7.3563 C   0  0  0  0  0  0  0  0  0  0  0  0
    0.4064   21.5870    7.4947 C   0  0  0  0  0  0  0  0  0  0  0  0
   -0.1542   18.3242    5.9565 O   0  0  0  0  0  0  0  0  0  0  0  0
    0.0384   19.8555    3.7309 O   0  0  0  0  0  0  0  0  0  0  0  0
   -0.1922   18.1697    4.9912 H   0  0  0  0  0  0  0  0  0  0  0  0
    0.1279   20.5327    3.0380 H   0  0  0  0  0  0  0  0  0  0  0  0
 18 19  2  0  0  0
 19 20  1  0  0  0
 20 21  2  0  0  0
 21 22  1  0  0  0
 22 23  2  0  0  0
 18 23  1  0  0  0
 23  1  1  0  0  0
  1  2  2  0  0  0
  2  3  1  0  0  0
  3  4  2  0  0  0
  3  5  1  0  0  0
  5  6  2  0  0  0
  6  7  1  0  0  0
  7  8  2  0  0  0
  8  9  1  0  0  0
  9 10  2  0  0  0
  5 10  1  0  0  0
 10 11  1  0  0  0
  1 11  1  0  0  0
  8 12  1  0  0  0
  6 13  1  0  0  0
  2 14  1  0  0  0
 21 24  1  0  0  0
 20 25  1  0  0  0
 12 15  1  0  0  0
 13 16  1  0  0  0
 14 17  1  0  0  0
 24 26  1  0  0  0
 25 27  1  0  0  0
M  END
> <minimizedAffinity>
-7.38899

$$$$
