Quercetin


 27 29  0  0  0  0  0  0  0  0999 V2000
  -16.7312   24.8558    3.5609 C   0  0  0  0  0  0  0  0  0  0  0  0
  -15.8481   25.8431    3.8145 C   0  0  0  0  0  0  0  0  0  0  0  0
  -15.8490   27.0249    2.9104 C   0  0  0  0  0  0  0  0  0  0  0  0
  -15.0985   27.9859    3.0632 O   0  0  0  0  0  0  0  0  0  0  0  0
  -16.8024   27.0154    1.7950 C   0  0  0  0  0  0  0  0  0  0  0  0
  -16.8869   28.0845    0.8946 C   0  0  0  0  0  0  0  0  0  0  0  0
  -17.7985   28.0489   -0.1576 C   0  0  0  0  0  0  0  0  0  0  0  0
  -18.6215   26.9360   -0.3028 C   0  0  0  0  0  0  0  0  0  0  0  0
  -18.5473   25.8671    0.5867 C   0  0  0  0  0  0  0  0  0  0  0  0
  -17.6351   25.9109    1.6413 C   0  0  0  0  0  0  0  0  0  0  0  0
  -17.6136   24.8371    2.4935 O   0  0  0  0  0  0  0  0  0  0  0  0
  -19.5290   26.8548   -1.3172 O   0  0  0  0  0  0  0  0  0  0  0  0
  -16.1027   29.2032    0.9891 O   0  0  0  0  0  0  0  0  0  0  0  0
  -14.9365   25.8386    4.8558 O   0  0  0  0  0  0  0  0  0  0  0  0
  -19.4717   27.6632   -1.8547 H   0  0  0  0  0  0  0  0  0  0  0  0
  -15.5066   29.0938    1.7663 H   0  0  0  0  0  0  0  0  0  0  0  0
  -14.9150   24.9541    5.2576 H   0  0  0  0  0  0  0  0  0  0  0  0
  -15.7761   22.7615    4.5367 C   0  0  0  0  0  0  0  0  0  0  0  0
  -15.8915   21.6105    5.3228 C   0  0  0  0  0  0  0  0  0  0  0  0
  -17.0805   21.3724    5.9990 C   0  0  0  0  0  0  0  0  0  0  0  0
  -18.1379   22.2741    5.9022 C   0  0  0  0  0  0  0  0  0  0  0  0
  -18.0334   23.4198    5.1242 C   0  0  0  0  0  0  0  0  0  0  0  0
  -16.8483   23.6662    4.4210 C   0  0  0  0  0  0  0  0  0  0  0  0
  -19.3020   22.0314    6.5737 O   0  0  0  0  0  0  0  0  0  0  0  0
  -17.2621   20.2610    6.7733 O   0  0  0  0  0  0  0  0  0  0  0  0
  -19.1444   21.1909    7.0488 H   0  0  0  0  0  0  0  0  0  0  0  0
  -16.4491   19.7274    6.7402 H   0  0  0  0  0  0  0  0  0  0  0  0
 18 19  2  0  0  0
 19 20  1  0  0  0
 20 21  2  0  0  0
 21 22  1  0  0  0
 22 23  2  0  0  0
 18 23  1  0  0  0
 23  1  1  0  0  0
  1  2  2  0  0  0
  2  3  1  0  0  0
  3  4  2  0  0  0
  3  5  1  0  0  0
  5  6  2  0  0  0
  6  7  1  0  0  0
  7  8  2  0  0  0
  8  9  1  0  0  0
  9 10  2  0  0  0
  5 10  1  0  0  0
 10 11  1  0  0  0
  1 11  1  0  0  0
  8 12  1  0  0  0
  6 13  1  0  0  0
  2 14  1  0  0  0
 21 24  1  0  0  0
 20 25  1  0  0  0
 12 15  1  0  0  0
 13 16  1  0  0  0
 14 17  1  0  0  0
 24 26  1  0  0  0
 25 27  1  0  0  0
M  END
> <minimizedAffinity>
-8.87545

$$$$
Quercetin


 27 29  0  0  0  0  0  0  0  0999 V2000
  -17.1552   23.4487    3.8362 C   0  0  0  0  0  0  0  0  0  0  0  0
  -16.3174   24.5045    3.7877 C   0  0  0  0  0  0  0  0  0  0  0  0
  -16.6277   25.5937    2.8228 C   0  0  0  0  0  0  0  0  0  0  0  0
  -15.9403   26.6061    2.7114 O   0  0  0  0  0  0  0  0  0  0  0  0
  -17.8169   25.4244    1.9799 C   0  0  0  0  0  0  0  0  0  0  0  0
  -18.1985   26.3972    1.0477 C   0  0  0  0  0  0  0  0  0  0  0  0
  -19.3300   26.2104    0.2577 C   0  0  0  0  0  0  0  0  0  0  0  0
  -20.0738   25.0434    0.4060 C   0  0  0  0  0  0  0  0  0  0  0  0
  -19.7050   24.0692    1.3301 C   0  0  0  0  0  0  0  0  0  0  0  0
  -18.5728   24.2645    2.1216 C   0  0  0  0  0  0  0  0  0  0  0  0
  -18.2635   23.2789    3.0230 O   0  0  0  0  0  0  0  0  0  0  0  0
  -21.1888   24.8151   -0.3450 O   0  0  0  0  0  0  0  0  0  0  0  0
  -17.5048   27.5629    0.8597 O   0  0  0  0  0  0  0  0  0  0  0  0
  -15.1853   24.6504    4.5703 O   0  0  0  0  0  0  0  0  0  0  0  0
  -21.3257   25.5712   -0.9411 H   0  0  0  0  0  0  0  0  0  0  0  0
  -16.7330   27.5615    1.4726 H   0  0  0  0  0  0  0  0  0  0  0  0
  -14.9987   23.8104    5.0219 H   0  0  0  0  0  0  0  0  0  0  0  0
  -17.7585   22.2593    5.9509 C   0  0  0  0  0  0  0  0  0  0  0  0
  -17.5640   21.2308    6.8785 C   0  0  0  0  0  0  0  0  0  0  0  0
  -16.5824   20.2797    6.6344 C   0  0  0  0  0  0  0  0  0  0  0  0
  -15.8110   20.3457    5.4764 C   0  0  0  0  0  0  0  0  0  0  0  0
  -15.9961   21.3630    4.5493 C   0  0  0  0  0  0  0  0  0  0  0  0
  -16.9690   22.3408    4.7884 C   0  0  0  0  0  0  0  0  0  0  0  0
  -14.8500   19.4034    5.2451 O   0  0  0  0  0  0  0  0  0  0  0  0
  -16.3336   19.2570    7.5063 O   0  0  0  0  0  0  0  0  0  0  0  0
  -14.9055   18.7983    6.0118 H   0  0  0  0  0  0  0  0  0  0  0  0
  -16.9393   19.3441    8.2627 H   0  0  0  0  0  0  0  0  0  0  0  0
 18 19  2  0  0  0
 19 20  1  0  0  0
 20 21  2  0  0  0
 21 22  1  0  0  0
 22 23  2  0  0  0
 18 23  1  0  0  0
 23  1  1  0  0  0
  1  2  2  0  0  0
  2  3  1  0  0  0
  3  4  2  0  0  0
  3  5  1  0  0  0
  5  6  2  0  0  0
  6  7  1  0  0  0
  7  8  2  0  0  0
  8  9  1  0  0  0
  9 10  2  0  0  0
  5 10  1  0  0  0
 10 11  1  0  0  0
  1 11  1  0  0  0
  8 12  1  0  0  0
  6 13  1  0  0  0
  2 14  1  0  0  0
 21 24  1  0  0  0
 20 25  1  0  0  0
 12 15  1  0  0  0
 13 16  1  0  0  0
 14 17  1  0  0  0
 24 26  1  0  0  0
 25 27  1  0  0  0
M  END
> <minimizedAffinity>
-8.45363

$$$$
Quercetin


 27 29  0  0  0  0  0  0  0  0999 V2000
  -16.7941   24.6824    3.6840 C   0  0  0  0  0  0  0  0  0  0  0  0
  -17.6576   25.0357    2.7101 C   0  0  0  0  0  0  0  0  0  0  0  0
  -17.2916   26.1869    1.8413 C   0  0  0  0  0  0  0  0  0  0  0  0
  -17.9979   26.5785    0.9152 O   0  0  0  0  0  0  0  0  0  0  0  0
  -16.0217   26.8648    2.1260 C   0  0  0  0  0  0  0  0  0  0  0  0
  -15.5842   27.9523    1.3598 C   0  0  0  0  0  0  0  0  0  0  0  0
  -14.3762   28.5801    1.6532 C   0  0  0  0  0  0  0  0  0  0  0  0
  -13.6123   28.1135    2.7189 C   0  0  0  0  0  0  0  0  0  0  0  0
  -14.0363   27.0325    3.4875 C   0  0  0  0  0  0  0  0  0  0  0  0
  -15.2453   26.4052    3.1856 C   0  0  0  0  0  0  0  0  0  0  0  0
  -15.6076   25.3386    3.9671 O   0  0  0  0  0  0  0  0  0  0  0  0
  -12.4232   28.6957    3.0451 O   0  0  0  0  0  0  0  0  0  0  0  0
  -16.2944   28.4529    0.3013 O   0  0  0  0  0  0  0  0  0  0  0  0
  -18.8640   24.4061    2.4582 O   0  0  0  0  0  0  0  0  0  0  0  0
  -12.2544   29.4300    2.4303 H   0  0  0  0  0  0  0  0  0  0  0  0
  -17.1212   27.9242    0.2106 H   0  0  0  0  0  0  0  0  0  0  0  0
  -19.0656   23.7979    3.1889 H   0  0  0  0  0  0  0  0  0  0  0  0
  -18.2379   23.4231    5.2903 C   0  0  0  0  0  0  0  0  0  0  0  0
  -18.4598   22.3495    6.1588 C   0  0  0  0  0  0  0  0  0  0  0  0
  -17.4771   21.3781    6.2947 C   0  0  0  0  0  0  0  0  0  0  0  0
  -16.2926   21.4688    5.5673 C   0  0  0  0  0  0  0  0  0  0  0  0
  -16.0625   22.5309    4.7025 C   0  0  0  0  0  0  0  0  0  0  0  0
  -17.0348   23.5288    4.5672 C   0  0  0  0  0  0  0  0  0  0  0  0
  -15.3339   20.5063    5.7067 O   0  0  0  0  0  0  0  0  0  0  0  0
  -17.6265   20.3110    7.1354 O   0  0  0  0  0  0  0  0  0  0  0  0
  -15.7110   19.8707    6.3477 H   0  0  0  0  0  0  0  0  0  0  0  0
  -18.4912   20.3852    7.5752 H   0  0  0  0  0  0  0  0  0  0  0  0
 18 19  2  0  0  0
 19 20  1  0  0  0
 20 21  2  0  0  0
 21 22  1  0  0  0
 22 23  2  0  0  0
 18 23  1  0  0  0
 23  1  1  0  0  0
  1  2  2  0  0  0
  2  3  1  0  0  0
  3  4  2  0  0  0
  3  5  1  0  0  0
  5  6  2  0  0  0
  6  7  1  0  0  0
  7  8  2  0  0  0
  8  9  1  0  0  0
  9 10  2  0  0  0
  5 10  1  0  0  0
 10 11  1  0  0  0
  1 11  1  0  0  0
  8 12  1  0  0  0
  6 13  1  0  0  0
  2 14  1  0  0  0
 21 24  1  0  0  0
 20 25  1  0  0  0
 12 15  1  0  0  0
 13 16  1  0  0  0
 14 17  1  0  0  0
 24 26  1  0  0  0
 25 27  1  0  0  0
M  END
> <minimizedAffinity>
-8.19276

$$$$
Quercetin


 27 29  0  0  0  0  0  0  0  0999 V2000
  -17.5241   24.5987    2.9567 C   0  0  0  0  0  0  0  0  0  0  0  0
  -18.6068   24.6022    2.1525 C   0  0  0  0  0  0  0  0  0  0  0  0
  -18.6873   25.6514    1.1006 C   0  0  0  0  0  0  0  0  0  0  0  0
  -19.6207   25.7326    0.3054 O   0  0  0  0  0  0  0  0  0  0  0  0
  -17.5858   26.6185    1.0321 C   0  0  0  0  0  0  0  0  0  0  0  0
  -17.5645   27.6376    0.0719 C   0  0  0  0  0  0  0  0  0  0  0  0
  -16.5085   28.5446    0.0307 C   0  0  0  0  0  0  0  0  0  0  0  0
  -15.4774   28.4254    0.9577 C   0  0  0  0  0  0  0  0  0  0  0  0
  -15.4869   27.4158    1.9168 C   0  0  0  0  0  0  0  0  0  0  0  0
  -16.5455   26.5076    1.9499 C   0  0  0  0  0  0  0  0  0  0  0  0
  -16.4972   25.5269    2.9067 O   0  0  0  0  0  0  0  0  0  0  0  0
  -14.4227   29.2896    0.9577 O   0  0  0  0  0  0  0  0  0  0  0  0
  -18.5512   27.8020   -0.8633 O   0  0  0  0  0  0  0  0  0  0  0  0
  -19.6535   23.7004    2.2339 O   0  0  0  0  0  0  0  0  0  0  0  0
  -14.5466   29.9356    0.2413 H   0  0  0  0  0  0  0  0  0  0  0  0
  -19.2307   27.1033   -0.7169 H   0  0  0  0  0  0  0  0  0  0  0  0
  -19.5701   23.1876    3.0552 H   0  0  0  0  0  0  0  0  0  0  0  0
  -16.1050   22.8707    4.0751 C   0  0  0  0  0  0  0  0  0  0  0  0
  -15.9165   21.8726    5.0366 C   0  0  0  0  0  0  0  0  0  0  0  0
  -16.9458   21.5886    5.9241 C   0  0  0  0  0  0  0  0  0  0  0  0
  -18.1440   22.2964    5.8620 C   0  0  0  0  0  0  0  0  0  0  0  0
  -18.3412   23.2892    4.9110 C   0  0  0  0  0  0  0  0  0  0  0  0
  -17.3208   23.5759    3.9965 C   0  0  0  0  0  0  0  0  0  0  0  0
  -19.1487   22.0107    6.7417 O   0  0  0  0  0  0  0  0  0  0  0  0
  -16.8302   20.6174    6.8786 O   0  0  0  0  0  0  0  0  0  0  0  0
  -18.7883   21.2993    7.3083 H   0  0  0  0  0  0  0  0  0  0  0  0
  -15.9506   20.2097    6.7970 H   0  0  0  0  0  0  0  0  0  0  0  0
 18 19  2  0  0  0
 19 20  1  0  0  0
 20 21  2  0  0  0
 21 22  1  0  0  0
 22 23  2  0  0  0
 18 23  1  0  0  0
 23  1  1  0  0  0
  1  2  2  0  0  0
  2  3  1  0  0  0
  3  4  2  0  0  0
  3  5  1  0  0  0
  5  6  2  0  0  0
  6  7  1  0  0  0
  7  8  2  0  0  0
  8  9  1  0  0  0
  9 10  2  0  0  0
  5 10  1  0  0  0
 10 11  1  0  0  0
  1 11  1  0  0  0
  8 12  1  0  0  0
  6 13  1  0  0  0
  2 14  1  0  0  0
 21 24  1  0  0  0
 20 25  1  0  0  0
 12 15  1  0  0  0
 13 16  1  0  0  0
 14 17  1  0  0  0
 24 26  1  0  0  0
 25 27  1  0  0  0
M  END
> <minimizedAffinity>
-8.02333

$$$$
Quercetin


 27 29  0  0  0  0  0  0  0  0999 V2000
  -15.5770   20.1551    6.4398 C   0  0  0  0  0  0  0  0  0  0  0  0
  -15.5606   20.0046    7.7799 C   0  0  0  0  0  0  0  0  0  0  0  0
  -14.8108   18.8478    8.3398 C   0  0  0  0  0  0  0  0  0  0  0  0
  -14.7181   18.6297    9.5456 O   0  0  0  0  0  0  0  0  0  0  0  0
  -14.1603   17.9441    7.3840 C   0  0  0  0  0  0  0  0  0  0  0  0
  -13.4236   16.8327    7.8117 C   0  0  0  0  0  0  0  0  0  0  0  0
  -12.8188   15.9888    6.8836 C   0  0  0  0  0  0  0  0  0  0  0  0
  -12.9589   16.2641    5.5265 C   0  0  0  0  0  0  0  0  0  0  0  0
  -13.6883   17.3667    5.0890 C   0  0  0  0  0  0  0  0  0  0  0  0
  -14.2880   18.2107    6.0241 C   0  0  0  0  0  0  0  0  0  0  0  0
  -14.9833   19.2877    5.5378 O   0  0  0  0  0  0  0  0  0  0  0  0
  -12.3860   15.4670    4.5802 O   0  0  0  0  0  0  0  0  0  0  0  0
  -13.2532   16.5141    9.1327 O   0  0  0  0  0  0  0  0  0  0  0  0
  -16.1927   20.8481    8.6768 O   0  0  0  0  0  0  0  0  0  0  0  0
  -11.9123   14.7433    5.0248 H   0  0  0  0  0  0  0  0  0  0  0  0
  -13.7334   17.1840    9.6731 H   0  0  0  0  0  0  0  0  0  0  0  0
  -16.7819   21.4482    8.1899 H   0  0  0  0  0  0  0  0  0  0  0  0
  -17.5333   21.6919    6.1913 C   0  0  0  0  0  0  0  0  0  0  0  0
  -18.1912   22.7469    5.5509 C   0  0  0  0  0  0  0  0  0  0  0  0
  -17.5535   23.4049    4.5077 C   0  0  0  0  0  0  0  0  0  0  0  0
  -16.2727   23.0243    4.1139 C   0  0  0  0  0  0  0  0  0  0  0  0
  -15.6110   21.9779    4.7433 C   0  0  0  0  0  0  0  0  0  0  0  0
  -16.2465   21.2915    5.7847 C   0  0  0  0  0  0  0  0  0  0  0  0
  -15.6537   23.6802    3.0884 O   0  0  0  0  0  0  0  0  0  0  0  0
  -18.1460   24.4350    3.8327 O   0  0  0  0  0  0  0  0  0  0  0  0
  -16.2929   24.3667    2.8106 H   0  0  0  0  0  0  0  0  0  0  0  0
  -19.0302   24.5820    4.2113 H   0  0  0  0  0  0  0  0  0  0  0  0
 18 19  2  0  0  0
 19 20  1  0  0  0
 20 21  2  0  0  0
 21 22  1  0  0  0
 22 23  2  0  0  0
 18 23  1  0  0  0
 23  1  1  0  0  0
  1  2  2  0  0  0
  2  3  1  0  0  0
  3  4  2  0  0  0
  3  5  1  0  0  0
  5  6  2  0  0  0
  6  7  1  0  0  0
  7  8  2  0  0  0
  8  9  1  0  0  0
  9 10  2  0  0  0
  5 10  1  0  0  0
 10 11  1  0  0  0
  1 11  1  0  0  0
  8 12  1  0  0  0
  6 13  1  0  0  0
  2 14  1  0  0  0
 21 24  1  0  0  0
 20 25  1  0  0  0
 12 15  1  0  0  0
 13 16  1  0  0  0
 14 17  1  0  0  0
 24 26  1  0  0  0
 25 27  1  0  0  0
M  END
> <minimizedAffinity>
-7.82157

$$$$
