Quercetin


 27 29  0  0  0  0  0  0  0  0999 V2000
  -13.8485    4.4873    2.5698 C   0  0  0  0  0  0  0  0  0  0  0  0
  -13.0139    3.8106    3.3849 C   0  0  0  0  0  0  0  0  0  0  0  0
  -11.7250    4.4574    3.7513 C   0  0  0  0  0  0  0  0  0  0  0  0
  -10.9026    3.9355    4.5005 O   0  0  0  0  0  0  0  0  0  0  0  0
  -11.4516    5.7803    3.1781 C   0  0  0  0  0  0  0  0  0  0  0  0
  -10.2711    6.4750    3.4692 C   0  0  0  0  0  0  0  0  0  0  0  0
  -10.0347    7.7280    2.9093 C   0  0  0  0  0  0  0  0  0  0  0  0
  -10.9861    8.2781    2.0553 C   0  0  0  0  0  0  0  0  0  0  0  0
  -12.1642    7.5973    1.7589 C   0  0  0  0  0  0  0  0  0  0  0  0
  -12.3970    6.3444    2.3266 C   0  0  0  0  0  0  0  0  0  0  0  0
  -13.5784    5.7251    2.0100 O   0  0  0  0  0  0  0  0  0  0  0  0
  -10.7994    9.5013    1.4825 O   0  0  0  0  0  0  0  0  0  0  0  0
   -9.3015    5.9823    4.3015 O   0  0  0  0  0  0  0  0  0  0  0  0
  -13.2669    2.5541    3.9069 O   0  0  0  0  0  0  0  0  0  0  0  0
   -9.9432    9.8575    1.7756 H   0  0  0  0  0  0  0  0  0  0  0  0
   -9.5928    5.0958    4.6189 H   0  0  0  0  0  0  0  0  0  0  0  0
  -14.0420    2.1733    3.4614 H   0  0  0  0  0  0  0  0  0  0  0  0
  -16.2313    3.9558    3.1089 C   0  0  0  0  0  0  0  0  0  0  0  0
  -17.4784    3.4252    2.7636 C   0  0  0  0  0  0  0  0  0  0  0  0
  -17.6611    2.9077    1.4883 C   0  0  0  0  0  0  0  0  0  0  0  0
  -16.6185    2.9276    0.5646 C   0  0  0  0  0  0  0  0  0  0  0  0
  -15.3764    3.4521    0.8977 C   0  0  0  0  0  0  0  0  0  0  0  0
  -15.1692    3.9613    2.1851 C   0  0  0  0  0  0  0  0  0  0  0  0
  -16.8101    2.4184   -0.6879 O   0  0  0  0  0  0  0  0  0  0  0  0
  -18.8506    2.3638    1.0921 O   0  0  0  0  0  0  0  0  0  0  0  0
  -17.7414    2.1190   -0.6949 H   0  0  0  0  0  0  0  0  0  0  0  0
  -19.4746    2.4141    1.8369 H   0  0  0  0  0  0  0  0  0  0  0  0
 18 19  2  0  0  0
 19 20  1  0  0  0
 20 21  2  0  0  0
 21 22  1  0  0  0
 22 23  2  0  0  0
 18 23  1  0  0  0
 23  1  1  0  0  0
  1  2  2  0  0  0
  2  3  1  0  0  0
  3  4  2  0  0  0
  3  5  1  0  0  0
  5  6  2  0  0  0
  6  7  1  0  0  0
  7  8  2  0  0  0
  8  9  1  0  0  0
  9 10  2  0  0  0
  5 10  1  0  0  0
 10 11  1  0  0  0
  1 11  1  0  0  0
  8 12  1  0  0  0
  6 13  1  0  0  0
  2 14  1  0  0  0
 21 24  1  0  0  0
 20 25  1  0  0  0
 12 15  1  0  0  0
 13 16  1  0  0  0
 14 17  1  0  0  0
 24 26  1  0  0  0
 25 27  1  0  0  0
M  END
> <minimizedAffinity>
-6.67340

$$$$
Quercetin


 27 29  0  0  0  0  0  0  0  0999 V2000
  -13.0712    3.9150    3.7717 C   0  0  0  0  0  0  0  0  0  0  0  0
  -12.3564    5.0517    3.8978 C   0  0  0  0  0  0  0  0  0  0  0  0
  -10.9831    4.9497    4.4614 C   0  0  0  0  0  0  0  0  0  0  0  0
  -10.2427    5.9203    4.6017 O   0  0  0  0  0  0  0  0  0  0  0  0
  -10.5178    3.6154    4.8569 C   0  0  0  0  0  0  0  0  0  0  0  0
   -9.2382    3.4138    5.3887 C   0  0  0  0  0  0  0  0  0  0  0  0
   -8.8224    2.1374    5.7592 C   0  0  0  0  0  0  0  0  0  0  0  0
   -9.6965    1.0668    5.5959 C   0  0  0  0  0  0  0  0  0  0  0  0
  -10.9711    1.2545    5.0675 C   0  0  0  0  0  0  0  0  0  0  0  0
  -11.3800    2.5351    4.6941 C   0  0  0  0  0  0  0  0  0  0  0  0
  -12.6399    2.6599    4.1682 O   0  0  0  0  0  0  0  0  0  0  0  0
   -9.3352   -0.2009    5.9445 O   0  0  0  0  0  0  0  0  0  0  0  0
   -8.3378    4.4293    5.5714 O   0  0  0  0  0  0  0  0  0  0  0  0
  -12.8070    6.3110    3.5424 O   0  0  0  0  0  0  0  0  0  0  0  0
   -8.4283   -0.1833    6.2952 H   0  0  0  0  0  0  0  0  0  0  0  0
   -8.7604    5.2693    5.2760 H   0  0  0  0  0  0  0  0  0  0  0  0
  -13.7602    6.2689    3.3580 H   0  0  0  0  0  0  0  0  0  0  0  0
  -15.5572    4.0588    3.9942 C   0  0  0  0  0  0  0  0  0  0  0  0
  -16.8432    4.0064    3.4467 C   0  0  0  0  0  0  0  0  0  0  0  0
  -16.9865    3.7990    2.0813 C   0  0  0  0  0  0  0  0  0  0  0  0
  -15.8636    3.6559    1.2695 C   0  0  0  0  0  0  0  0  0  0  0  0
  -14.5825    3.7062    1.8034 C   0  0  0  0  0  0  0  0  0  0  0  0
  -14.4200    3.8963    3.1807 C   0  0  0  0  0  0  0  0  0  0  0  0
  -16.0162    3.4550   -0.0726 O   0  0  0  0  0  0  0  0  0  0  0  0
  -18.2145    3.7251    1.4861 O   0  0  0  0  0  0  0  0  0  0  0  0
  -16.9837    3.4631   -0.2168 H   0  0  0  0  0  0  0  0  0  0  0  0
  -18.8955    3.8358    2.1721 H   0  0  0  0  0  0  0  0  0  0  0  0
 18 19  2  0  0  0
 19 20  1  0  0  0
 20 21  2  0  0  0
 21 22  1  0  0  0
 22 23  2  0  0  0
 18 23  1  0  0  0
 23  1  1  0  0  0
  1  2  2  0  0  0
  2  3  1  0  0  0
  3  4  2  0  0  0
  3  5  1  0  0  0
  5  6  2  0  0  0
  6  7  1  0  0  0
  7  8  2  0  0  0
  8  9  1  0  0  0
  9 10  2  0  0  0
  5 10  1  0  0  0
 10 11  1  0  0  0
  1 11  1  0  0  0
  8 12  1  0  0  0
  6 13  1  0  0  0
  2 14  1  0  0  0
 21 24  1  0  0  0
 20 25  1  0  0  0
 12 15  1  0  0  0
 13 16  1  0  0  0
 14 17  1  0  0  0
 24 26  1  0  0  0
 25 27  1  0  0  0
M  END
> <minimizedAffinity>
-6.47652

$$$$
Quercetin


 27 29  0  0  0  0  0  0  0  0999 V2000
  -13.1302    5.1708    2.7237 C   0  0  0  0  0  0  0  0  0  0  0  0
  -13.9750    4.9371    3.7487 C   0  0  0  0  0  0  0  0  0  0  0  0
  -15.2094    4.1556    3.4670 C   0  0  0  0  0  0  0  0  0  0  0  0
  -16.0350    3.8723    4.3320 O   0  0  0  0  0  0  0  0  0  0  0  0
  -15.4229    3.7142    2.0839 C   0  0  0  0  0  0  0  0  0  0  0  0
  -16.5489    2.9657    1.7195 C   0  0  0  0  0  0  0  0  0  0  0  0
  -16.7292    2.5621    0.3989 C   0  0  0  0  0  0  0  0  0  0  0  0
  -15.7768    2.9149   -0.5527 C   0  0  0  0  0  0  0  0  0  0  0  0
  -14.6527    3.6583   -0.2024 C   0  0  0  0  0  0  0  0  0  0  0  0
  -14.4756    4.0558    1.1232 C   0  0  0  0  0  0  0  0  0  0  0  0
  -13.3451    4.7748    1.4139 O   0  0  0  0  0  0  0  0  0  0  0  0
  -15.9098    2.5437   -1.8580 O   0  0  0  0  0  0  0  0  0  0  0  0
  -17.5166    2.5909    2.6130 O   0  0  0  0  0  0  0  0  0  0  0  0
  -13.7797    5.3729    5.0476 O   0  0  0  0  0  0  0  0  0  0  0  0
  -16.7324    2.0344   -1.9569 H   0  0  0  0  0  0  0  0  0  0  0  0
  -17.2681    2.9442    3.4988 H   0  0  0  0  0  0  0  0  0  0  0  0
  -13.0447    6.0084    5.0642 H   0  0  0  0  0  0  0  0  0  0  0  0
  -11.7228    7.2207    2.4635 C   0  0  0  0  0  0  0  0  0  0  0  0
  -10.5071    7.8994    2.5966 C   0  0  0  0  0  0  0  0  0  0  0  0
   -9.4297    7.2445    3.1779 C   0  0  0  0  0  0  0  0  0  0  0  0
   -9.5636    5.9339    3.6306 C   0  0  0  0  0  0  0  0  0  0  0  0
  -10.7663    5.2512    3.5028 C   0  0  0  0  0  0  0  0  0  0  0  0
  -11.8576    5.8901    2.9025 C   0  0  0  0  0  0  0  0  0  0  0  0
   -8.4980    5.3003    4.2033 O   0  0  0  0  0  0  0  0  0  0  0  0
   -8.2118    7.8467    3.3262 O   0  0  0  0  0  0  0  0  0  0  0  0
   -7.7790    5.9635    4.1922 H   0  0  0  0  0  0  0  0  0  0  0  0
   -8.2682    8.7474    2.9626 H   0  0  0  0  0  0  0  0  0  0  0  0
 18 19  2  0  0  0
 19 20  1  0  0  0
 20 21  2  0  0  0
 21 22  1  0  0  0
 22 23  2  0  0  0
 18 23  1  0  0  0
 23  1  1  0  0  0
  1  2  2  0  0  0
  2  3  1  0  0  0
  3  4  2  0  0  0
  3  5  1  0  0  0
  5  6  2  0  0  0
  6  7  1  0  0  0
  7  8  2  0  0  0
  8  9  1  0  0  0
  9 10  2  0  0  0
  5 10  1  0  0  0
 10 11  1  0  0  0
  1 11  1  0  0  0
  8 12  1  0  0  0
  6 13  1  0  0  0
  2 14  1  0  0  0
 21 24  1  0  0  0
 20 25  1  0  0  0
 12 15  1  0  0  0
 13 16  1  0  0  0
 14 17  1  0  0  0
 24 26  1  0  0  0
 25 27  1  0  0  0
M  END
> <minimizedAffinity>
-6.22563

$$$$
Quercetin


 27 29  0  0  0  0  0  0  0  0999 V2000
  -13.0583    5.1755    2.6409 C   0  0  0  0  0  0  0  0  0  0  0  0
  -13.8819    4.9434    3.6834 C   0  0  0  0  0  0  0  0  0  0  0  0
  -15.1233    4.1641    3.4278 C   0  0  0  0  0  0  0  0  0  0  0  0
  -15.9311    3.8823    4.3099 O   0  0  0  0  0  0  0  0  0  0  0  0
  -15.3665    3.7230    2.0495 C   0  0  0  0  0  0  0  0  0  0  0  0
  -16.5012    2.9766    1.7088 C   0  0  0  0  0  0  0  0  0  0  0  0
  -16.7099    2.5732    0.3923 C   0  0  0  0  0  0  0  0  0  0  0  0
  -15.7771    2.9242   -0.5790 C   0  0  0  0  0  0  0  0  0  0  0  0
  -14.6445    3.6656   -0.2524 C   0  0  0  0  0  0  0  0  0  0  0  0
  -14.4390    4.0628    1.0691 C   0  0  0  0  0  0  0  0  0  0  0  0
  -13.3013    4.7797    1.3360 O   0  0  0  0  0  0  0  0  0  0  0  0
  -15.9381    2.5531   -1.8812 O   0  0  0  0  0  0  0  0  0  0  0  0
  -17.4507    2.6036    2.6225 O   0  0  0  0  0  0  0  0  0  0  0  0
  -13.6585    5.3789    4.9780 O   0  0  0  0  0  0  0  0  0  0  0  0
  -16.7635    2.0454   -1.9628 H   0  0  0  0  0  0  0  0  0  0  0  0
  -17.1831    2.9565    3.5029 H   0  0  0  0  0  0  0  0  0  0  0  0
  -12.9222    6.0131    4.9791 H   0  0  0  0  0  0  0  0  0  0  0  0
  -10.6202    5.2042    3.1938 C   0  0  0  0  0  0  0  0  0  0  0  0
   -9.4113    5.8835    3.3755 C   0  0  0  0  0  0  0  0  0  0  0  0
   -9.3661    7.2522    3.1468 C   0  0  0  0  0  0  0  0  0  0  0  0
  -10.5077    7.9345    2.7323 C   0  0  0  0  0  0  0  0  0  0  0  0
  -11.7130    7.2692    2.5491 C   0  0  0  0  0  0  0  0  0  0  0  0
  -11.7809    5.8924    2.7929 C   0  0  0  0  0  0  0  0  0  0  0  0
  -10.4513    9.2803    2.5076 O   0  0  0  0  0  0  0  0  0  0  0  0
   -8.2199    7.9766    3.3180 O   0  0  0  0  0  0  0  0  0  0  0  0
   -9.5216    9.5241    2.6898 H   0  0  0  0  0  0  0  0  0  0  0  0
   -7.5160    7.3727    3.6119 H   0  0  0  0  0  0  0  0  0  0  0  0
 18 19  2  0  0  0
 19 20  1  0  0  0
 20 21  2  0  0  0
 21 22  1  0  0  0
 22 23  2  0  0  0
 18 23  1  0  0  0
 23  1  1  0  0  0
  1  2  2  0  0  0
  2  3  1  0  0  0
  3  4  2  0  0  0
  3  5  1  0  0  0
  5  6  2  0  0  0
  6  7  1  0  0  0
  7  8  2  0  0  0
  8  9  1  0  0  0
  9 10  2  0  0  0
  5 10  1  0  0  0
 10 11  1  0  0  0
  1 11  1  0  0  0
  8 12  1  0  0  0
  6 13  1  0  0  0
  2 14  1  0  0  0
 21 24  1  0  0  0
 20 25  1  0  0  0
 12 15  1  0  0  0
 13 16  1  0  0  0
 14 17  1  0  0  0
 24 26  1  0  0  0
 25 27  1  0  0  0
M  END
> <minimizedAffinity>
-6.19746

$$$$
Quercetin


 27 29  0  0  0  0  0  0  0  0999 V2000
  -16.5217    2.2782    0.4691 C   0  0  0  0  0  0  0  0  0  0  0  0
  -16.3519    2.0657   -0.8518 C   0  0  0  0  0  0  0  0  0  0  0  0
  -16.9746    0.8518   -1.4457 C   0  0  0  0  0  0  0  0  0  0  0  0
  -16.8958    0.5746   -2.6403 O   0  0  0  0  0  0  0  0  0  0  0  0
  -17.7126   -0.0353   -0.5392 C   0  0  0  0  0  0  0  0  0  0  0  0
  -18.3418   -1.1972   -1.0028 C   0  0  0  0  0  0  0  0  0  0  0  0
  -19.0331   -2.0238   -0.1207 C   0  0  0  0  0  0  0  0  0  0  0  0
  -19.0875   -1.6804    1.2269 C   0  0  0  0  0  0  0  0  0  0  0  0
  -18.4665   -0.5272    1.6998 C   0  0  0  0  0  0  0  0  0  0  0  0
  -17.7793    0.2990    0.8102 C   0  0  0  0  0  0  0  0  0  0  0  0
  -17.1976    1.4274    1.3280 O   0  0  0  0  0  0  0  0  0  0  0  0
  -19.7515   -2.4581    2.1288 O   0  0  0  0  0  0  0  0  0  0  0  0
  -18.3207   -1.5835   -2.3165 O   0  0  0  0  0  0  0  0  0  0  0  0
  -15.6377    2.8946   -1.6993 O   0  0  0  0  0  0  0  0  0  0  0  0
  -20.1330   -3.2221    1.6634 H   0  0  0  0  0  0  0  0  0  0  0  0
  -17.7982   -0.9182   -2.8223 H   0  0  0  0  0  0  0  0  0  0  0  0
  -15.1429    3.5424   -1.1703 H   0  0  0  0  0  0  0  0  0  0  0  0
  -14.6127    3.5892    1.4114 C   0  0  0  0  0  0  0  0  0  0  0  0
  -14.1045    4.7032    2.0872 C   0  0  0  0  0  0  0  0  0  0  0  0
  -14.9787    5.7035    2.4907 C   0  0  0  0  0  0  0  0  0  0  0  0
  -16.3404    5.6012    2.2158 C   0  0  0  0  0  0  0  0  0  0  0  0
  -16.8551    4.4991    1.5455 C   0  0  0  0  0  0  0  0  0  0  0  0
  -15.9905    3.4725    1.1476 C   0  0  0  0  0  0  0  0  0  0  0  0
  -17.1909    6.5923    2.6149 O   0  0  0  0  0  0  0  0  0  0  0  0
  -14.5482    6.8113    3.1655 O   0  0  0  0  0  0  0  0  0  0  0  0
  -16.6158    7.2530    3.0506 H   0  0  0  0  0  0  0  0  0  0  0  0
  -13.5856    6.7410    3.2889 H   0  0  0  0  0  0  0  0  0  0  0  0
 18 19  2  0  0  0
 19 20  1  0  0  0
 20 21  2  0  0  0
 21 22  1  0  0  0
 22 23  2  0  0  0
 18 23  1  0  0  0
 23  1  1  0  0  0
  1  2  2  0  0  0
  2  3  1  0  0  0
  3  4  2  0  0  0
  3  5  1  0  0  0
  5  6  2  0  0  0
  6  7  1  0  0  0
  7  8  2  0  0  0
  8  9  1  0  0  0
  9 10  2  0  0  0
  5 10  1  0  0  0
 10 11  1  0  0  0
  1 11  1  0  0  0
  8 12  1  0  0  0
  6 13  1  0  0  0
  2 14  1  0  0  0
 21 24  1  0  0  0
 20 25  1  0  0  0
 12 15  1  0  0  0
 13 16  1  0  0  0
 14 17  1  0  0  0
 24 26  1  0  0  0
 25 27  1  0  0  0
M  END
> <minimizedAffinity>
-6.18297

$$$$
