Quercetin


 27 29  0  0  0  0  0  0  0  0999 V2000
  -29.6303   23.3990    6.3494 C   0  0  0  0  0  0  0  0  0  0  0  0
  -29.5037   23.2875    5.0113 C   0  0  0  0  0  0  0  0  0  0  0  0
  -30.7473   23.1617    4.2041 C   0  0  0  0  0  0  0  0  0  0  0  0
  -30.7444   23.0724    2.9785 O   0  0  0  0  0  0  0  0  0  0  0  0
  -32.0212   23.1486    4.9323 C   0  0  0  0  0  0  0  0  0  0  0  0
  -33.2466   23.0433    4.2628 C   0  0  0  0  0  0  0  0  0  0  0  0
  -34.4413   23.0299    4.9782 C   0  0  0  0  0  0  0  0  0  0  0  0
  -34.4000   23.1201    6.3664 C   0  0  0  0  0  0  0  0  0  0  0  0
  -33.1877   23.2260    7.0434 C   0  0  0  0  0  0  0  0  0  0  0  0
  -31.9946   23.2433    6.3206 C   0  0  0  0  0  0  0  0  0  0  0  0
  -30.8318   23.3619    7.0373 O   0  0  0  0  0  0  0  0  0  0  0  0
  -35.5427   23.1105    7.1102 O   0  0  0  0  0  0  0  0  0  0  0  0
  -33.3466   22.9516    2.9001 O   0  0  0  0  0  0  0  0  0  0  0  0
  -28.2989   23.2797    4.3302 O   0  0  0  0  0  0  0  0  0  0  0  0
  -36.3056   23.0331    6.5121 H   0  0  0  0  0  0  0  0  0  0  0  0
  -32.4353   22.9669    2.5250 H   0  0  0  0  0  0  0  0  0  0  0  0
  -27.5717   23.1913    4.9687 H   0  0  0  0  0  0  0  0  0  0  0  0
  -27.5344   22.5392    7.4070 C   0  0  0  0  0  0  0  0  0  0  0  0
  -26.4479   22.6877    8.2750 C   0  0  0  0  0  0  0  0  0  0  0  0
  -26.2950   23.8827    8.9652 C   0  0  0  0  0  0  0  0  0  0  0  0
  -27.2065   24.9207    8.7857 C   0  0  0  0  0  0  0  0  0  0  0  0
  -28.2888   24.7831    7.9263 C   0  0  0  0  0  0  0  0  0  0  0  0
  -28.4684   23.5784    7.2364 C   0  0  0  0  0  0  0  0  0  0  0  0
  -27.0450   26.0928    9.4676 O   0  0  0  0  0  0  0  0  0  0  0  0
  -25.2627   24.0873    9.8371 O   0  0  0  0  0  0  0  0  0  0  0  0
  -26.2305   25.9641    9.9940 H   0  0  0  0  0  0  0  0  0  0  0  0
  -24.7180   23.2815    9.8628 H   0  0  0  0  0  0  0  0  0  0  0  0
 18 19  2  0  0  0
 19 20  1  0  0  0
 20 21  2  0  0  0
 21 22  1  0  0  0
 22 23  2  0  0  0
 18 23  1  0  0  0
 23  1  1  0  0  0
  1  2  2  0  0  0
  2  3  1  0  0  0
  3  4  2  0  0  0
  3  5  1  0  0  0
  5  6  2  0  0  0
  6  7  1  0  0  0
  7  8  2  0  0  0
  8  9  1  0  0  0
  9 10  2  0  0  0
  5 10  1  0  0  0
 10 11  1  0  0  0
  1 11  1  0  0  0
  8 12  1  0  0  0
  6 13  1  0  0  0
  2 14  1  0  0  0
 21 24  1  0  0  0
 20 25  1  0  0  0
 12 15  1  0  0  0
 13 16  1  0  0  0
 14 17  1  0  0  0
 24 26  1  0  0  0
 25 27  1  0  0  0
M  END
> <minimizedAffinity>
-7.92591

$$$$
Quercetin


 27 29  0  0  0  0  0  0  0  0999 V2000
  -31.6868   23.4281    5.9058 C   0  0  0  0  0  0  0  0  0  0  0  0
  -31.0160   23.5904    4.7471 C   0  0  0  0  0  0  0  0  0  0  0  0
  -29.5357   23.4429    4.7750 C   0  0  0  0  0  0  0  0  0  0  0  0
  -28.8324   23.5531    3.7733 O   0  0  0  0  0  0  0  0  0  0  0  0
  -28.9151   23.1503    6.0721 C   0  0  0  0  0  0  0  0  0  0  0  0
  -27.5306   22.9844    6.2010 C   0  0  0  0  0  0  0  0  0  0  0  0
  -26.9667   22.7104    7.4444 C   0  0  0  0  0  0  0  0  0  0  0  0
  -27.7974   22.6064    8.5562 C   0  0  0  0  0  0  0  0  0  0  0  0
  -29.1756   22.7685    8.4407 C   0  0  0  0  0  0  0  0  0  0  0  0
  -29.7348   23.0384    7.1913 C   0  0  0  0  0  0  0  0  0  0  0  0
  -31.0976   23.1762    7.1337 O   0  0  0  0  0  0  0  0  0  0  0  0
  -27.2920   22.3402    9.7944 O   0  0  0  0  0  0  0  0  0  0  0  0
  -26.6667   23.0760    5.1424 O   0  0  0  0  0  0  0  0  0  0  0  0
  -31.6036   23.8866    3.5296 O   0  0  0  0  0  0  0  0  0  0  0  0
  -26.3259   22.2518    9.7264 H   0  0  0  0  0  0  0  0  0  0  0  0
  -27.1938   23.2768    4.3342 H   0  0  0  0  0  0  0  0  0  0  0  0
  -32.5339   24.1275    3.6741 H   0  0  0  0  0  0  0  0  0  0  0  0
  -33.9373   22.3409    5.8411 C   0  0  0  0  0  0  0  0  0  0  0  0
  -35.3338   22.4082    5.8748 C   0  0  0  0  0  0  0  0  0  0  0  0
  -35.9450   23.6415    6.0569 C   0  0  0  0  0  0  0  0  0  0  0  0
  -35.1755   24.7920    6.2138 C   0  0  0  0  0  0  0  0  0  0  0  0
  -33.7882   24.7358    6.1817 C   0  0  0  0  0  0  0  0  0  0  0  0
  -33.1557   23.5033    5.9806 C   0  0  0  0  0  0  0  0  0  0  0  0
  -35.7871   25.9995    6.3950 O   0  0  0  0  0  0  0  0  0  0  0  0
  -37.3046   23.7774    6.0869 O   0  0  0  0  0  0  0  0  0  0  0  0
  -36.7441   25.7968    6.3896 H   0  0  0  0  0  0  0  0  0  0  0  0
  -37.7039   22.8994    5.9595 H   0  0  0  0  0  0  0  0  0  0  0  0
 18 19  2  0  0  0
 19 20  1  0  0  0
 20 21  2  0  0  0
 21 22  1  0  0  0
 22 23  2  0  0  0
 18 23  1  0  0  0
 23  1  1  0  0  0
  1  2  2  0  0  0
  2  3  1  0  0  0
  3  4  2  0  0  0
  3  5  1  0  0  0
  5  6  2  0  0  0
  6  7  1  0  0  0
  7  8  2  0  0  0
  8  9  1  0  0  0
  9 10  2  0  0  0
  5 10  1  0  0  0
 10 11  1  0  0  0
  1 11  1  0  0  0
  8 12  1  0  0  0
  6 13  1  0  0  0
  2 14  1  0  0  0
 21 24  1  0  0  0
 20 25  1  0  0  0
 12 15  1  0  0  0
 13 16  1  0  0  0
 14 17  1  0  0  0
 24 26  1  0  0  0
 25 27  1  0  0  0
M  END
> <minimizedAffinity>
-7.44002

$$$$
Quercetin


 27 29  0  0  0  0  0  0  0  0999 V2000
  -29.1293   23.3077    5.6772 C   0  0  0  0  0  0  0  0  0  0  0  0
  -30.4388   23.0975    5.9222 C   0  0  0  0  0  0  0  0  0  0  0  0
  -31.3299   22.8377    4.7594 C   0  0  0  0  0  0  0  0  0  0  0  0
  -32.5333   22.6166    4.8737 O   0  0  0  0  0  0  0  0  0  0  0  0
  -30.7150   22.8501    3.4271 C   0  0  0  0  0  0  0  0  0  0  0  0
  -31.4671   22.6077    2.2710 C   0  0  0  0  0  0  0  0  0  0  0  0
  -30.8594   22.6284    1.0181 C   0  0  0  0  0  0  0  0  0  0  0  0
  -29.4963   22.8957    0.9313 C   0  0  0  0  0  0  0  0  0  0  0  0
  -28.7378   23.1375    2.0738 C   0  0  0  0  0  0  0  0  0  0  0  0
  -29.3516   23.1108    3.3263 C   0  0  0  0  0  0  0  0  0  0  0  0
  -28.5548   23.3434    4.4175 O   0  0  0  0  0  0  0  0  0  0  0  0
  -28.8570   22.9274   -0.2726 O   0  0  0  0  0  0  0  0  0  0  0  0
  -32.8098   22.3398    2.2971 O   0  0  0  0  0  0  0  0  0  0  0  0
  -31.0182   23.1070    7.1790 O   0  0  0  0  0  0  0  0  0  0  0  0
  -29.5029   22.7424   -0.9757 H   0  0  0  0  0  0  0  0  0  0  0  0
  -33.1077   22.3618    3.2363 H   0  0  0  0  0  0  0  0  0  0  0  0
  -30.3791   23.4558    7.8227 H   0  0  0  0  0  0  0  0  0  0  0  0
  -27.1977   22.5369    7.0648 C   0  0  0  0  0  0  0  0  0  0  0  0
  -26.2897   22.7193    8.1129 C   0  0  0  0  0  0  0  0  0  0  0  0
  -26.3355   23.8968    8.8471 C   0  0  0  0  0  0  0  0  0  0  0  0
  -27.2666   24.8849    8.5354 C   0  0  0  0  0  0  0  0  0  0  0  0
  -28.1726   24.7134    7.4968 C   0  0  0  0  0  0  0  0  0  0  0  0
  -28.1526   23.5246    6.7579 C   0  0  0  0  0  0  0  0  0  0  0  0
  -27.3010   26.0403    9.2624 O   0  0  0  0  0  0  0  0  0  0  0  0
  -25.4850   24.1317    9.8909 O   0  0  0  0  0  0  0  0  0  0  0  0
  -26.5835   25.9417    9.9201 H   0  0  0  0  0  0  0  0  0  0  0  0
  -24.9026   23.3590    9.9924 H   0  0  0  0  0  0  0  0  0  0  0  0
 18 19  2  0  0  0
 19 20  1  0  0  0
 20 21  2  0  0  0
 21 22  1  0  0  0
 22 23  2  0  0  0
 18 23  1  0  0  0
 23  1  1  0  0  0
  1  2  2  0  0  0
  2  3  1  0  0  0
  3  4  2  0  0  0
  3  5  1  0  0  0
  5  6  2  0  0  0
  6  7  1  0  0  0
  7  8  2  0  0  0
  8  9  1  0  0  0
  9 10  2  0  0  0
  5 10  1  0  0  0
 10 11  1  0  0  0
  1 11  1  0  0  0
  8 12  1  0  0  0
  6 13  1  0  0  0
  2 14  1  0  0  0
 21 24  1  0  0  0
 20 25  1  0  0  0
 12 15  1  0  0  0
 13 16  1  0  0  0
 14 17  1  0  0  0
 24 26  1  0  0  0
 25 27  1  0  0  0
M  END
> <minimizedAffinity>
-7.12087

$$$$
Quercetin


 27 29  0  0  0  0  0  0  0  0999 V2000
  -32.0194   24.4420    5.8647 C   0  0  0  0  0  0  0  0  0  0  0  0
  -33.1264   23.6930    6.0448 C   0  0  0  0  0  0  0  0  0  0  0  0
  -34.4478   24.3668    5.9267 C   0  0  0  0  0  0  0  0  0  0  0  0
  -35.5162   23.7735    6.0546 O   0  0  0  0  0  0  0  0  0  0  0  0
  -34.4435   25.8062    5.6416 C   0  0  0  0  0  0  0  0  0  0  0  0
  -35.6349   26.5290    5.5029 C   0  0  0  0  0  0  0  0  0  0  0  0
  -35.6029   27.8953    5.2355 C   0  0  0  0  0  0  0  0  0  0  0  0
  -34.3716   28.5319    5.1107 C   0  0  0  0  0  0  0  0  0  0  0  0
  -33.1801   27.8238    5.2458 C   0  0  0  0  0  0  0  0  0  0  0  0
  -33.2190   26.4544    5.5092 C   0  0  0  0  0  0  0  0  0  0  0  0
  -32.0165   25.8053    5.6200 O   0  0  0  0  0  0  0  0  0  0  0  0
  -34.2891   29.8677    4.8499 O   0  0  0  0  0  0  0  0  0  0  0  0
  -36.8731   25.9548    5.6156 O   0  0  0  0  0  0  0  0  0  0  0  0
  -33.1253   22.3395    6.3338 O   0  0  0  0  0  0  0  0  0  0  0  0
  -35.1890   30.2299    4.7811 H   0  0  0  0  0  0  0  0  0  0  0  0
  -36.7491   24.9964    5.8089 H   0  0  0  0  0  0  0  0  0  0  0  0
  -32.2211   22.0610    6.5555 H   0  0  0  0  0  0  0  0  0  0  0  0
  -30.0064   23.6889    7.1418 C   0  0  0  0  0  0  0  0  0  0  0  0
  -28.7061   23.1762    7.1918 C   0  0  0  0  0  0  0  0  0  0  0  0
  -28.0704   22.8338    6.0059 C   0  0  0  0  0  0  0  0  0  0  0  0
  -28.7248   22.9901    4.7861 C   0  0  0  0  0  0  0  0  0  0  0  0
  -30.0158   23.4985    4.7257 C   0  0  0  0  0  0  0  0  0  0  0  0
  -30.6648   23.8660    5.9103 C   0  0  0  0  0  0  0  0  0  0  0  0
  -28.0911   22.6476    3.6259 O   0  0  0  0  0  0  0  0  0  0  0  0
  -26.7965   22.3396    5.9848 O   0  0  0  0  0  0  0  0  0  0  0  0
  -27.2159   22.3149    3.9094 H   0  0  0  0  0  0  0  0  0  0  0  0
  -26.4700   22.2926    6.9001 H   0  0  0  0  0  0  0  0  0  0  0  0
 18 19  2  0  0  0
 19 20  1  0  0  0
 20 21  2  0  0  0
 21 22  1  0  0  0
 22 23  2  0  0  0
 18 23  1  0  0  0
 23  1  1  0  0  0
  1  2  2  0  0  0
  2  3  1  0  0  0
  3  4  2  0  0  0
  3  5  1  0  0  0
  5  6  2  0  0  0
  6  7  1  0  0  0
  7  8  2  0  0  0
  8  9  1  0  0  0
  9 10  2  0  0  0
  5 10  1  0  0  0
 10 11  1  0  0  0
  1 11  1  0  0  0
  8 12  1  0  0  0
  6 13  1  0  0  0
  2 14  1  0  0  0
 21 24  1  0  0  0
 20 25  1  0  0  0
 12 15  1  0  0  0
 13 16  1  0  0  0
 14 17  1  0  0  0
 24 26  1  0  0  0
 25 27  1  0  0  0
M  END
> <minimizedAffinity>
-6.23331

$$$$
Quercetin


 27 29  0  0  0  0  0  0  0  0999 V2000
  -33.2668   27.8106    4.8230 C   0  0  0  0  0  0  0  0  0  0  0  0
  -34.5639   27.7554    5.1884 C   0  0  0  0  0  0  0  0  0  0  0  0
  -35.0540   26.5020    5.8228 C   0  0  0  0  0  0  0  0  0  0  0  0
  -36.2115   26.3544    6.2083 O   0  0  0  0  0  0  0  0  0  0  0  0
  -34.0876   25.4097    5.9845 C   0  0  0  0  0  0  0  0  0  0  0  0
  -34.4489   24.1939    6.5780 C   0  0  0  0  0  0  0  0  0  0  0  0
  -33.5130   23.1720    6.7165 C   0  0  0  0  0  0  0  0  0  0  0  0
  -32.2158   23.3751    6.2548 C   0  0  0  0  0  0  0  0  0  0  0  0
  -31.8444   24.5800    5.6636 C   0  0  0  0  0  0  0  0  0  0  0  0
  -32.7855   25.6013    5.5319 C   0  0  0  0  0  0  0  0  0  0  0  0
  -32.3620   26.7702    4.9539 O   0  0  0  0  0  0  0  0  0  0  0  0
  -31.2648   22.4045    6.3675 O   0  0  0  0  0  0  0  0  0  0  0  0
  -35.7092   23.9394    7.0494 O   0  0  0  0  0  0  0  0  0  0  0  0
  -35.4770   28.7809    5.0154 O   0  0  0  0  0  0  0  0  0  0  0  0
  -31.6604   21.6260    6.7954 H   0  0  0  0  0  0  0  0  0  0  0  0
  -36.2643   24.7367    6.8838 H   0  0  0  0  0  0  0  0  0  0  0  0
  -35.0872   29.4625    4.4428 H   0  0  0  0  0  0  0  0  0  0  0  0
  -32.4299   30.1577    5.0266 C   0  0  0  0  0  0  0  0  0  0  0  0
  -31.8943   31.3222    4.4669 C   0  0  0  0  0  0  0  0  0  0  0  0
  -31.5897   31.3408    3.1125 C   0  0  0  0  0  0  0  0  0  0  0  0
  -31.8058   30.2108    2.3270 C   0  0  0  0  0  0  0  0  0  0  0  0
  -32.3373   29.0497    2.8730 C   0  0  0  0  0  0  0  0  0  0  0  0
  -32.6673   29.0195    4.2331 C   0  0  0  0  0  0  0  0  0  0  0  0
  -31.5000   30.2393    0.9963 O   0  0  0  0  0  0  0  0  0  0  0  0
  -31.0759   32.4503    2.5019 O   0  0  0  0  0  0  0  0  0  0  0  0
  -31.1419   31.1366    0.8426 H   0  0  0  0  0  0  0  0  0  0  0  0
  -30.9867   33.1538    3.1681 H   0  0  0  0  0  0  0  0  0  0  0  0
 18 19  2  0  0  0
 19 20  1  0  0  0
 20 21  2  0  0  0
 21 22  1  0  0  0
 22 23  2  0  0  0
 18 23  1  0  0  0
 23  1  1  0  0  0
  1  2  2  0  0  0
  2  3  1  0  0  0
  3  4  2  0  0  0
  3  5  1  0  0  0
  5  6  2  0  0  0
  6  7  1  0  0  0
  7  8  2  0  0  0
  8  9  1  0  0  0
  9 10  2  0  0  0
  5 10  1  0  0  0
 10 11  1  0  0  0
  1 11  1  0  0  0
  8 12  1  0  0  0
  6 13  1  0  0  0
  2 14  1  0  0  0
 21 24  1  0  0  0
 20 25  1  0  0  0
 12 15  1  0  0  0
 13 16  1  0  0  0
 14 17  1  0  0  0
 24 26  1  0  0  0
 25 27  1  0  0  0
M  END
> <minimizedAffinity>
-6.11973

$$$$
