Quercetin


 27 29  0  0  0  0  0  0  0  0999 V2000
  -39.6868   18.1446    9.0696 C   0  0  0  0  0  0  0  0  0  0  0  0
  -39.8146   18.3050    7.7366 C   0  0  0  0  0  0  0  0  0  0  0  0
  -38.8513   19.2075    7.0501 C   0  0  0  0  0  0  0  0  0  0  0  0
  -38.8689   19.4088    5.8379 O   0  0  0  0  0  0  0  0  0  0  0  0
  -37.8436   19.8723    7.8843 C   0  0  0  0  0  0  0  0  0  0  0  0
  -36.8873   20.7331    7.3316 C   0  0  0  0  0  0  0  0  0  0  0  0
  -35.9439   21.3541    8.1462 C   0  0  0  0  0  0  0  0  0  0  0  0
  -35.9666   21.1092    9.5161 C   0  0  0  0  0  0  0  0  0  0  0  0
  -36.9121   20.2547   10.0773 C   0  0  0  0  0  0  0  0  0  0  0  0
  -37.8517   19.6322    9.2551 C   0  0  0  0  0  0  0  0  0  0  0  0
  -38.7507   18.7917    9.8592 O   0  0  0  0  0  0  0  0  0  0  0  0
  -35.0642   21.6942   10.3543 O   0  0  0  0  0  0  0  0  0  0  0  0
  -36.8185   21.0101    5.9922 O   0  0  0  0  0  0  0  0  0  0  0  0
  -40.7795   17.6917    6.9567 O   0  0  0  0  0  0  0  0  0  0  0  0
  -34.4702   22.2591    9.8308 H   0  0  0  0  0  0  0  0  0  0  0  0
  -37.5402   20.5141    5.5400 H   0  0  0  0  0  0  0  0  0  0  0  0
  -41.4418   17.2776    7.5349 H   0  0  0  0  0  0  0  0  0  0  0  0
  -41.9552   17.3657    9.7754 C   0  0  0  0  0  0  0  0  0  0  0  0
  -42.7862   16.5316   10.5303 C   0  0  0  0  0  0  0  0  0  0  0  0
  -42.2111   15.5633   11.3424 C   0  0  0  0  0  0  0  0  0  0  0  0
  -40.8265   15.4201   11.3943 C   0  0  0  0  0  0  0  0  0  0  0  0
  -39.9926   16.2434   10.6488 C   0  0  0  0  0  0  0  0  0  0  0  0
  -40.5549   17.2371    9.8388 C   0  0  0  0  0  0  0  0  0  0  0  0
  -40.2716   14.4626   12.1944 O   0  0  0  0  0  0  0  0  0  0  0  0
  -42.9660   14.7252   12.1140 O   0  0  0  0  0  0  0  0  0  0  0  0
  -41.0347   14.0113   12.6080 H   0  0  0  0  0  0  0  0  0  0  0  0
  -43.9041   14.9454   11.9794 H   0  0  0  0  0  0  0  0  0  0  0  0
 18 19  2  0  0  0
 19 20  1  0  0  0
 20 21  2  0  0  0
 21 22  1  0  0  0
 22 23  2  0  0  0
 18 23  1  0  0  0
 23  1  1  0  0  0
  1  2  2  0  0  0
  2  3  1  0  0  0
  3  4  2  0  0  0
  3  5  1  0  0  0
  5  6  2  0  0  0
  6  7  1  0  0  0
  7  8  2  0  0  0
  8  9  1  0  0  0
  9 10  2  0  0  0
  5 10  1  0  0  0
 10 11  1  0  0  0
  1 11  1  0  0  0
  8 12  1  0  0  0
  6 13  1  0  0  0
  2 14  1  0  0  0
 21 24  1  0  0  0
 20 25  1  0  0  0
 12 15  1  0  0  0
 13 16  1  0  0  0
 14 17  1  0  0  0
 24 26  1  0  0  0
 25 27  1  0  0  0
M  END
> <minimizedAffinity>
-6.45329

$$$$
Quercetin


 27 29  0  0  0  0  0  0  0  0999 V2000
  -39.3841   19.0605    8.9422 C   0  0  0  0  0  0  0  0  0  0  0  0
  -40.6067   19.5051    8.5865 C   0  0  0  0  0  0  0  0  0  0  0  0
  -41.7888   18.7214    9.0363 C   0  0  0  0  0  0  0  0  0  0  0  0
  -42.9457   19.0486    8.7823 O   0  0  0  0  0  0  0  0  0  0  0  0
  -41.5303   17.5078    9.8196 C   0  0  0  0  0  0  0  0  0  0  0  0
  -42.5757   16.7075   10.2967 C   0  0  0  0  0  0  0  0  0  0  0  0
  -42.3028   15.5587   11.0352 C   0  0  0  0  0  0  0  0  0  0  0  0
  -40.9780   15.2166   11.2898 C   0  0  0  0  0  0  0  0  0  0  0  0
  -39.9300   16.0048   10.8215 C   0  0  0  0  0  0  0  0  0  0  0  0
  -40.2101   17.1568   10.0860 C   0  0  0  0  0  0  0  0  0  0  0  0
  -39.1406   17.9017    9.6606 O   0  0  0  0  0  0  0  0  0  0  0  0
  -40.6609   14.1014   12.0075 O   0  0  0  0  0  0  0  0  0  0  0  0
  -43.8962   16.9957   10.0762 O   0  0  0  0  0  0  0  0  0  0  0  0
  -40.8450   20.6394    7.8301 O   0  0  0  0  0  0  0  0  0  0  0  0
  -41.4830   13.6520   12.2683 H   0  0  0  0  0  0  0  0  0  0  0  0
  -43.9435   17.8226    9.5421 H   0  0  0  0  0  0  0  0  0  0  0  0
  -40.0056   20.9566    7.4570 H   0  0  0  0  0  0  0  0  0  0  0  0
  -37.7513   19.9062    7.2482 C   0  0  0  0  0  0  0  0  0  0  0  0
  -36.5636   20.5628    6.9099 C   0  0  0  0  0  0  0  0  0  0  0  0
  -35.7822   21.1061    7.9208 C   0  0  0  0  0  0  0  0  0  0  0  0
  -36.1833   21.0062    9.2511 C   0  0  0  0  0  0  0  0  0  0  0  0
  -37.3607   20.3562    9.5975 C   0  0  0  0  0  0  0  0  0  0  0  0
  -38.1514   19.7866    8.5925 C   0  0  0  0  0  0  0  0  0  0  0  0
  -35.4084   21.5466   10.2372 O   0  0  0  0  0  0  0  0  0  0  0  0
  -34.6051   21.7490    7.6586 O   0  0  0  0  0  0  0  0  0  0  0  0
  -34.6514   21.9490    9.7661 H   0  0  0  0  0  0  0  0  0  0  0  0
  -34.4549   21.7349    6.6974 H   0  0  0  0  0  0  0  0  0  0  0  0
 18 19  2  0  0  0
 19 20  1  0  0  0
 20 21  2  0  0  0
 21 22  1  0  0  0
 22 23  2  0  0  0
 18 23  1  0  0  0
 23  1  1  0  0  0
  1  2  2  0  0  0
  2  3  1  0  0  0
  3  4  2  0  0  0
  3  5  1  0  0  0
  5  6  2  0  0  0
  6  7  1  0  0  0
  7  8  2  0  0  0
  8  9  1  0  0  0
  9 10  2  0  0  0
  5 10  1  0  0  0
 10 11  1  0  0  0
  1 11  1  0  0  0
  8 12  1  0  0  0
  6 13  1  0  0  0
  2 14  1  0  0  0
 21 24  1  0  0  0
 20 25  1  0  0  0
 12 15  1  0  0  0
 13 16  1  0  0  0
 14 17  1  0  0  0
 24 26  1  0  0  0
 25 27  1  0  0  0
M  END
> <minimizedAffinity>
-6.24992

$$$$
Quercetin


 27 29  0  0  0  0  0  0  0  0999 V2000
  -41.0974   16.5418   10.2727 C   0  0  0  0  0  0  0  0  0  0  0  0
  -42.3464   16.1330    9.9699 C   0  0  0  0  0  0  0  0  0  0  0  0
  -42.9783   15.1171   10.8545 C   0  0  0  0  0  0  0  0  0  0  0  0
  -44.1173   14.6909   10.6782 O   0  0  0  0  0  0  0  0  0  0  0  0
  -42.1815   14.6213   11.9825 C   0  0  0  0  0  0  0  0  0  0  0  0
  -42.6900   13.6716   12.8771 C   0  0  0  0  0  0  0  0  0  0  0  0
  -41.9115   13.2151   13.9378 C   0  0  0  0  0  0  0  0  0  0  0  0
  -40.6217   13.7139   14.0943 C   0  0  0  0  0  0  0  0  0  0  0  0
  -40.1051   14.6591   13.2117 C   0  0  0  0  0  0  0  0  0  0  0  0
  -40.8917   15.1155   12.1538 C   0  0  0  0  0  0  0  0  0  0  0  0
  -40.3373   16.0550   11.3233 O   0  0  0  0  0  0  0  0  0  0  0  0
  -39.8214   13.2972   15.1166 O   0  0  0  0  0  0  0  0  0  0  0  0
  -43.9506   13.1470   12.7712 O   0  0  0  0  0  0  0  0  0  0  0  0
  -43.0867   16.5885    8.8929 O   0  0  0  0  0  0  0  0  0  0  0  0
  -40.3069   12.6437   15.6486 H   0  0  0  0  0  0  0  0  0  0  0  0
  -44.3837   13.5489   11.9825 H   0  0  0  0  0  0  0  0  0  0  0  0
  -42.5104   17.1042    8.3045 H   0  0  0  0  0  0  0  0  0  0  0  0
  -39.0096   17.4974    9.2835 C   0  0  0  0  0  0  0  0  0  0  0  0
  -38.3327   18.4958    8.5755 C   0  0  0  0  0  0  0  0  0  0  0  0
  -39.0526   19.5709    8.0717 C   0  0  0  0  0  0  0  0  0  0  0  0
  -40.4306   19.6459    8.2612 C   0  0  0  0  0  0  0  0  0  0  0  0
  -41.1120   18.6599    8.9629 C   0  0  0  0  0  0  0  0  0  0  0  0
  -40.3991   17.5783    9.4935 C   0  0  0  0  0  0  0  0  0  0  0  0
  -41.1291   20.7064    7.7590 O   0  0  0  0  0  0  0  0  0  0  0  0
  -38.4498   20.5853    7.3822 O   0  0  0  0  0  0  0  0  0  0  0  0
  -40.4568   21.2562    7.3086 H   0  0  0  0  0  0  0  0  0  0  0  0
  -37.4958   20.4003    7.3352 H   0  0  0  0  0  0  0  0  0  0  0  0
 18 19  2  0  0  0
 19 20  1  0  0  0
 20 21  2  0  0  0
 21 22  1  0  0  0
 22 23  2  0  0  0
 18 23  1  0  0  0
 23  1  1  0  0  0
  1  2  2  0  0  0
  2  3  1  0  0  0
  3  4  2  0  0  0
  3  5  1  0  0  0
  5  6  2  0  0  0
  6  7  1  0  0  0
  7  8  2  0  0  0
  8  9  1  0  0  0
  9 10  2  0  0  0
  5 10  1  0  0  0
 10 11  1  0  0  0
  1 11  1  0  0  0
  8 12  1  0  0  0
  6 13  1  0  0  0
  2 14  1  0  0  0
 21 24  1  0  0  0
 20 25  1  0  0  0
 12 15  1  0  0  0
 13 16  1  0  0  0
 14 17  1  0  0  0
 24 26  1  0  0  0
 25 27  1  0  0  0
M  END
> <minimizedAffinity>
-6.13518

$$$$
Quercetin


 27 29  0  0  0  0  0  0  0  0999 V2000
  -40.9919   16.5116   10.1037 C   0  0  0  0  0  0  0  0  0  0  0  0
  -42.2360   16.0822    9.8090 C   0  0  0  0  0  0  0  0  0  0  0  0
  -42.8583   15.0809   10.7167 C   0  0  0  0  0  0  0  0  0  0  0  0
  -43.9924   14.6383   10.5491 O   0  0  0  0  0  0  0  0  0  0  0  0
  -42.0581   14.6208   11.8573 C   0  0  0  0  0  0  0  0  0  0  0  0
  -42.5579   13.6873   12.7737 C   0  0  0  0  0  0  0  0  0  0  0  0
  -41.7763   13.2647   13.8460 C   0  0  0  0  0  0  0  0  0  0  0  0
  -40.4921   13.7810   13.9924 C   0  0  0  0  0  0  0  0  0  0  0  0
  -39.9843   14.7103   13.0882 C   0  0  0  0  0  0  0  0  0  0  0  0
  -40.7741   15.1329   12.0185 C   0  0  0  0  0  0  0  0  0  0  0  0
  -40.2284   16.0582   11.1667 O   0  0  0  0  0  0  0  0  0  0  0  0
  -39.6891   13.3975   15.0255 O   0  0  0  0  0  0  0  0  0  0  0  0
  -43.8125   13.1467   12.6786 O   0  0  0  0  0  0  0  0  0  0  0  0
  -42.9793   16.5038    8.7204 O   0  0  0  0  0  0  0  0  0  0  0  0
  -40.1685   12.7516   15.5723 H   0  0  0  0  0  0  0  0  0  0  0  0
  -44.2486   13.5250   11.8798 H   0  0  0  0  0  0  0  0  0  0  0  0
  -42.4076   17.0115    8.1206 H   0  0  0  0  0  0  0  0  0  0  0  0
  -40.8169   17.9256    8.0493 C   0  0  0  0  0  0  0  0  0  0  0  0
  -40.1503   18.8720    7.2643 C   0  0  0  0  0  0  0  0  0  0  0  0
  -38.9729   19.4334    7.7399 C   0  0  0  0  0  0  0  0  0  0  0  0
  -38.4707   19.0651    8.9860 C   0  0  0  0  0  0  0  0  0  0  0  0
  -39.1249   18.1263    9.7730 C   0  0  0  0  0  0  0  0  0  0  0  0
  -40.3035   17.5366    9.3010 C   0  0  0  0  0  0  0  0  0  0  0  0
  -37.3132   19.6256    9.4452 O   0  0  0  0  0  0  0  0  0  0  0  0
  -38.2670   20.3538    7.0171 O   0  0  0  0  0  0  0  0  0  0  0  0
  -37.0420   20.2483    8.7410 H   0  0  0  0  0  0  0  0  0  0  0  0
  -38.7315   20.5053    6.1757 H   0  0  0  0  0  0  0  0  0  0  0  0
 18 19  2  0  0  0
 19 20  1  0  0  0
 20 21  2  0  0  0
 21 22  1  0  0  0
 22 23  2  0  0  0
 18 23  1  0  0  0
 23  1  1  0  0  0
  1  2  2  0  0  0
  2  3  1  0  0  0
  3  4  2  0  0  0
  3  5  1  0  0  0
  5  6  2  0  0  0
  6  7  1  0  0  0
  7  8  2  0  0  0
  8  9  1  0  0  0
  9 10  2  0  0  0
  5 10  1  0  0  0
 10 11  1  0  0  0
  1 11  1  0  0  0
  8 12  1  0  0  0
  6 13  1  0  0  0
  2 14  1  0  0  0
 21 24  1  0  0  0
 20 25  1  0  0  0
 12 15  1  0  0  0
 13 16  1  0  0  0
 14 17  1  0  0  0
 24 26  1  0  0  0
 25 27  1  0  0  0
M  END
> <minimizedAffinity>
-6.03566

$$$$
Quercetin


 27 29  0  0  0  0  0  0  0  0999 V2000
  -40.9724   16.3552   10.1318 C   0  0  0  0  0  0  0  0  0  0  0  0
  -41.8434   16.3404    9.1021 C   0  0  0  0  0  0  0  0  0  0  0  0
  -41.5529   17.2152    7.9341 C   0  0  0  0  0  0  0  0  0  0  0  0
  -42.2711   17.2634    6.9382 O   0  0  0  0  0  0  0  0  0  0  0  0
  -40.3451   18.0457    8.0020 C   0  0  0  0  0  0  0  0  0  0  0  0
  -39.9802   18.8952    6.9503 C   0  0  0  0  0  0  0  0  0  0  0  0
  -38.8303   19.6755    7.0416 C   0  0  0  0  0  0  0  0  0  0  0  0
  -38.0513   19.6009    8.1925 C   0  0  0  0  0  0  0  0  0  0  0  0
  -38.4034   18.7593    9.2446 C   0  0  0  0  0  0  0  0  0  0  0  0
  -39.5542   17.9769    9.1451 C   0  0  0  0  0  0  0  0  0  0  0  0
  -39.8460   17.1577   10.2051 O   0  0  0  0  0  0  0  0  0  0  0  0
  -36.9173   20.3457    8.3286 O   0  0  0  0  0  0  0  0  0  0  0  0
  -40.7084   19.0086    5.7961 O   0  0  0  0  0  0  0  0  0  0  0  0
  -42.9923   15.5705    9.0511 O   0  0  0  0  0  0  0  0  0  0  0  0
  -36.7954   20.8809    7.5258 H   0  0  0  0  0  0  0  0  0  0  0  0
  -41.4897   18.4121    5.8678 H   0  0  0  0  0  0  0  0  0  0  0  0
  -43.1588   15.1866    9.9282 H   0  0  0  0  0  0  0  0  0  0  0  0
  -42.4193   15.0670   11.7122 C   0  0  0  0  0  0  0  0  0  0  0  0
  -42.5892   14.2772   12.8539 C   0  0  0  0  0  0  0  0  0  0  0  0
  -41.4717   13.9077   13.5903 C   0  0  0  0  0  0  0  0  0  0  0  0
  -40.1999   14.3108   13.1895 C   0  0  0  0  0  0  0  0  0  0  0  0
  -40.0206   15.0953   12.0576 C   0  0  0  0  0  0  0  0  0  0  0  0
  -41.1380   15.4922   11.3136 C   0  0  0  0  0  0  0  0  0  0  0  0
  -39.1074   13.9394   13.9198 O   0  0  0  0  0  0  0  0  0  0  0  0
  -41.5702   13.1478   14.7220 O   0  0  0  0  0  0  0  0  0  0  0  0
  -39.4688   13.3980   14.6501 H   0  0  0  0  0  0  0  0  0  0  0  0
  -42.5099   12.9500   14.8783 H   0  0  0  0  0  0  0  0  0  0  0  0
 18 19  2  0  0  0
 19 20  1  0  0  0
 20 21  2  0  0  0
 21 22  1  0  0  0
 22 23  2  0  0  0
 18 23  1  0  0  0
 23  1  1  0  0  0
  1  2  2  0  0  0
  2  3  1  0  0  0
  3  4  2  0  0  0
  3  5  1  0  0  0
  5  6  2  0  0  0
  6  7  1  0  0  0
  7  8  2  0  0  0
  8  9  1  0  0  0
  9 10  2  0  0  0
  5 10  1  0  0  0
 10 11  1  0  0  0
  1 11  1  0  0  0
  8 12  1  0  0  0
  6 13  1  0  0  0
  2 14  1  0  0  0
 21 24  1  0  0  0
 20 25  1  0  0  0
 12 15  1  0  0  0
 13 16  1  0  0  0
 14 17  1  0  0  0
 24 26  1  0  0  0
 25 27  1  0  0  0
M  END
> <minimizedAffinity>
-6.01596

$$$$
