Quercetin


 27 29  0  0  0  0  0  0  0  0999 V2000
  -30.4527   19.8630   29.9208 C   0  0  0  0  0  0  0  0  0  0  0  0
  -29.4260   19.2223   30.5163 C   0  0  0  0  0  0  0  0  0  0  0  0
  -28.8673   19.8135   31.7622 C   0  0  0  0  0  0  0  0  0  0  0  0
  -27.9449   19.3009   32.3919 O   0  0  0  0  0  0  0  0  0  0  0  0
  -29.4669   21.0654   32.2381 C   0  0  0  0  0  0  0  0  0  0  0  0
  -29.0178   21.6953   33.4053 C   0  0  0  0  0  0  0  0  0  0  0  0
  -29.6021   22.8848   33.8333 C   0  0  0  0  0  0  0  0  0  0  0  0
  -30.6357   23.4390   33.0841 C   0  0  0  0  0  0  0  0  0  0  0  0
  -31.0916   22.8216   31.9221 C   0  0  0  0  0  0  0  0  0  0  0  0
  -30.5050   21.6279   31.5012 C   0  0  0  0  0  0  0  0  0  0  0  0
  -31.0014   21.0574   30.3576 O   0  0  0  0  0  0  0  0  0  0  0  0
  -31.2386   24.6021   33.4623 O   0  0  0  0  0  0  0  0  0  0  0  0
  -28.0056   21.1955   34.1805 O   0  0  0  0  0  0  0  0  0  0  0  0
  -28.8501   18.0524   30.0526 O   0  0  0  0  0  0  0  0  0  0  0  0
  -30.8235   24.9180   34.2831 H   0  0  0  0  0  0  0  0  0  0  0  0
  -27.6831   20.3631   33.7627 H   0  0  0  0  0  0  0  0  0  0  0  0
  -29.1786   17.8680   29.1568 H   0  0  0  0  0  0  0  0  0  0  0  0
  -32.1512   18.3955   28.8199 C   0  0  0  0  0  0  0  0  0  0  0  0
  -32.7581   17.8651   27.6768 C   0  0  0  0  0  0  0  0  0  0  0  0
  -32.3266   18.2880   26.4268 C   0  0  0  0  0  0  0  0  0  0  0  0
  -31.3107   19.2347   26.3160 C   0  0  0  0  0  0  0  0  0  0  0  0
  -30.7016   19.7672   27.4448 C   0  0  0  0  0  0  0  0  0  0  0  0
  -31.1116   19.3385   28.7127 C   0  0  0  0  0  0  0  0  0  0  0  0
  -30.8960   19.6455   25.0814 O   0  0  0  0  0  0  0  0  0  0  0  0
  -32.8691   17.8000   25.2712 O   0  0  0  0  0  0  0  0  0  0  0  0
  -31.4596   19.1516   24.4527 H   0  0  0  0  0  0  0  0  0  0  0  0
  -33.5549   17.1503   25.5043 H   0  0  0  0  0  0  0  0  0  0  0  0
 18 19  2  0  0  0
 19 20  1  0  0  0
 20 21  2  0  0  0
 21 22  1  0  0  0
 22 23  2  0  0  0
 18 23  1  0  0  0
 23  1  1  0  0  0
  1  2  2  0  0  0
  2  3  1  0  0  0
  3  4  2  0  0  0
  3  5  1  0  0  0
  5  6  2  0  0  0
  6  7  1  0  0  0
  7  8  2  0  0  0
  8  9  1  0  0  0
  9 10  2  0  0  0
  5 10  1  0  0  0
 10 11  1  0  0  0
  1 11  1  0  0  0
  8 12  1  0  0  0
  6 13  1  0  0  0
  2 14  1  0  0  0
 21 24  1  0  0  0
 20 25  1  0  0  0
 12 15  1  0  0  0
 13 16  1  0  0  0
 14 17  1  0  0  0
 24 26  1  0  0  0
 25 27  1  0  0  0
M  END
> <minimizedAffinity>
-7.02302

$$$$
Quercetin


 27 29  0  0  0  0  0  0  0  0999 V2000
  -30.7949   20.1952   29.7548 C   0  0  0  0  0  0  0  0  0  0  0  0
  -30.2670   20.3794   28.5274 C   0  0  0  0  0  0  0  0  0  0  0  0
  -30.8118   19.5650   27.4077 C   0  0  0  0  0  0  0  0  0  0  0  0
  -30.4144   19.6675   26.2494 O   0  0  0  0  0  0  0  0  0  0  0  0
  -31.8734   18.6049   27.7312 C   0  0  0  0  0  0  0  0  0  0  0  0
  -32.4573   17.7991   26.7460 C   0  0  0  0  0  0  0  0  0  0  0  0
  -33.4610   16.8935   27.0804 C   0  0  0  0  0  0  0  0  0  0  0  0
  -33.8733   16.7992   28.4063 C   0  0  0  0  0  0  0  0  0  0  0  0
  -33.3009   17.5957   29.3948 C   0  0  0  0  0  0  0  0  0  0  0  0
  -32.2989   18.5041   29.0525 C   0  0  0  0  0  0  0  0  0  0  0  0
  -31.7797   19.2714   30.0632 O   0  0  0  0  0  0  0  0  0  0  0  0
  -34.8518   15.9273   28.7826 O   0  0  0  0  0  0  0  0  0  0  0  0
  -32.0911   17.8496   25.4274 O   0  0  0  0  0  0  0  0  0  0  0  0
  -29.2515   21.2716   28.2307 O   0  0  0  0  0  0  0  0  0  0  0  0
  -35.1577   15.4415   27.9976 H   0  0  0  0  0  0  0  0  0  0  0  0
  -31.3756   18.5209   25.3344 H   0  0  0  0  0  0  0  0  0  0  0  0
  -28.8689   21.6069   29.0586 H   0  0  0  0  0  0  0  0  0  0  0  0
  -31.0359   22.1709   31.2678 C   0  0  0  0  0  0  0  0  0  0  0  0
  -30.6111   22.9444   32.3529 C   0  0  0  0  0  0  0  0  0  0  0  0
  -29.5169   22.5209   33.0952 C   0  0  0  0  0  0  0  0  0  0  0  0
  -28.8601   21.3368   32.7680 C   0  0  0  0  0  0  0  0  0  0  0  0
  -29.2739   20.5618   31.6924 C   0  0  0  0  0  0  0  0  0  0  0  0
  -30.3640   20.9833   30.9219 C   0  0  0  0  0  0  0  0  0  0  0  0
  -27.7866   20.9284   33.5067 O   0  0  0  0  0  0  0  0  0  0  0  0
  -29.0441   23.2367   34.1591 O   0  0  0  0  0  0  0  0  0  0  0  0
  -27.6863   21.6124   34.1989 H   0  0  0  0  0  0  0  0  0  0  0  0
  -29.5935   24.0331   34.2620 H   0  0  0  0  0  0  0  0  0  0  0  0
 18 19  2  0  0  0
 19 20  1  0  0  0
 20 21  2  0  0  0
 21 22  1  0  0  0
 22 23  2  0  0  0
 18 23  1  0  0  0
 23  1  1  0  0  0
  1  2  2  0  0  0
  2  3  1  0  0  0
  3  4  2  0  0  0
  3  5  1  0  0  0
  5  6  2  0  0  0
  6  7  1  0  0  0
  7  8  2  0  0  0
  8  9  1  0  0  0
  9 10  2  0  0  0
  5 10  1  0  0  0
 10 11  1  0  0  0
  1 11  1  0  0  0
  8 12  1  0  0  0
  6 13  1  0  0  0
  2 14  1  0  0  0
 21 24  1  0  0  0
 20 25  1  0  0  0
 12 15  1  0  0  0
 13 16  1  0  0  0
 14 17  1  0  0  0
 24 26  1  0  0  0
 25 27  1  0  0  0
M  END
> <minimizedAffinity>
-6.88639

$$$$
Quercetin


 27 29  0  0  0  0  0  0  0  0999 V2000
  -30.9523   17.4867   29.0744 C   0  0  0  0  0  0  0  0  0  0  0  0
  -30.7804   16.1530   28.9717 C   0  0  0  0  0  0  0  0  0  0  0  0
  -31.9781   15.2842   29.1284 C   0  0  0  0  0  0  0  0  0  0  0  0
  -31.9343   14.0596   29.0354 O   0  0  0  0  0  0  0  0  0  0  0  0
  -33.2572   15.9484   29.4039 C   0  0  0  0  0  0  0  0  0  0  0  0
  -34.4428   15.2195   29.5585 C   0  0  0  0  0  0  0  0  0  0  0  0
  -35.6430   15.8744   29.8227 C   0  0  0  0  0  0  0  0  0  0  0  0
  -35.6470   17.2617   29.9332 C   0  0  0  0  0  0  0  0  0  0  0  0
  -34.4747   17.9976   29.7807 C   0  0  0  0  0  0  0  0  0  0  0  0
  -33.2763   17.3359   29.5117 C   0  0  0  0  0  0  0  0  0  0  0  0
  -32.1557   18.1107   29.3587 O   0  0  0  0  0  0  0  0  0  0  0  0
  -36.7969   17.9475   30.1916 O   0  0  0  0  0  0  0  0  0  0  0  0
  -34.4974   13.8546   29.4603 O   0  0  0  0  0  0  0  0  0  0  0  0
  -29.5683   15.5294   28.7320 O   0  0  0  0  0  0  0  0  0  0  0  0
  -37.5291   17.3126   30.2728 H   0  0  0  0  0  0  0  0  0  0  0  0
  -33.5867   13.5245   29.2789 H   0  0  0  0  0  0  0  0  0  0  0  0
  -28.8513   16.1790   28.8238 H   0  0  0  0  0  0  0  0  0  0  0  0
  -28.9334   18.2727   27.8266 C   0  0  0  0  0  0  0  0  0  0  0  0
  -27.8575   19.1510   27.6623 C   0  0  0  0  0  0  0  0  0  0  0  0
  -27.7014   20.2005   28.5578 C   0  0  0  0  0  0  0  0  0  0  0  0
  -28.6108   20.3797   29.5977 C   0  0  0  0  0  0  0  0  0  0  0  0
  -29.6823   19.5130   29.7695 C   0  0  0  0  0  0  0  0  0  0  0  0
  -29.8444   18.4386   28.8868 C   0  0  0  0  0  0  0  0  0  0  0  0
  -28.4491   21.4169   30.4711 O   0  0  0  0  0  0  0  0  0  0  0  0
  -26.6651   21.0862   28.4603 O   0  0  0  0  0  0  0  0  0  0  0  0
  -27.6503   21.8854   30.1556 H   0  0  0  0  0  0  0  0  0  0  0  0
  -26.1156   20.8334   27.6982 H   0  0  0  0  0  0  0  0  0  0  0  0
 18 19  2  0  0  0
 19 20  1  0  0  0
 20 21  2  0  0  0
 21 22  1  0  0  0
 22 23  2  0  0  0
 18 23  1  0  0  0
 23  1  1  0  0  0
  1  2  2  0  0  0
  2  3  1  0  0  0
  3  4  2  0  0  0
  3  5  1  0  0  0
  5  6  2  0  0  0
  6  7  1  0  0  0
  7  8  2  0  0  0
  8  9  1  0  0  0
  9 10  2  0  0  0
  5 10  1  0  0  0
 10 11  1  0  0  0
  1 11  1  0  0  0
  8 12  1  0  0  0
  6 13  1  0  0  0
  2 14  1  0  0  0
 21 24  1  0  0  0
 20 25  1  0  0  0
 12 15  1  0  0  0
 13 16  1  0  0  0
 14 17  1  0  0  0
 24 26  1  0  0  0
 25 27  1  0  0  0
M  END
> <minimizedAffinity>
-6.86135

$$$$
Quercetin


 27 29  0  0  0  0  0  0  0  0999 V2000
  -30.4100   18.5959   28.2845 C   0  0  0  0  0  0  0  0  0  0  0  0
  -29.2376   19.1647   27.9367 C   0  0  0  0  0  0  0  0  0  0  0  0
  -28.6922   20.2289   28.8220 C   0  0  0  0  0  0  0  0  0  0  0  0
  -27.6246   20.7980   28.6062 O   0  0  0  0  0  0  0  0  0  0  0  0
  -29.4865   20.5930   30.0009 C   0  0  0  0  0  0  0  0  0  0  0  0
  -29.0546   21.5759   30.9000 C   0  0  0  0  0  0  0  0  0  0  0  0
  -29.8292   21.9050   32.0095 C   0  0  0  0  0  0  0  0  0  0  0  0
  -31.0383   21.2456   32.2104 C   0  0  0  0  0  0  0  0  0  0  0  0
  -31.4780   20.2659   31.3239 C   0  0  0  0  0  0  0  0  0  0  0  0
  -30.6952   19.9378   30.2167 C   0  0  0  0  0  0  0  0  0  0  0  0
  -31.1706   18.9577   29.3841 O   0  0  0  0  0  0  0  0  0  0  0  0
  -31.8315   21.5335   33.2815 O   0  0  0  0  0  0  0  0  0  0  0  0
  -27.8752   22.2560   30.7518 O   0  0  0  0  0  0  0  0  0  0  0  0
  -28.5018   18.8322   26.8126 O   0  0  0  0  0  0  0  0  0  0  0  0
  -31.4041   22.2288   33.8103 H   0  0  0  0  0  0  0  0  0  0  0  0
  -27.4360   21.9311   29.9315 H   0  0  0  0  0  0  0  0  0  0  0  0
  -29.0390   18.2637   26.2359 H   0  0  0  0  0  0  0  0  0  0  0  0
  -32.1460   17.7353   26.7046 C   0  0  0  0  0  0  0  0  0  0  0  0
  -32.7471   16.6933   25.9911 C   0  0  0  0  0  0  0  0  0  0  0  0
  -32.2059   15.4176   26.0769 C   0  0  0  0  0  0  0  0  0  0  0  0
  -31.0743   15.1840   26.8550 C   0  0  0  0  0  0  0  0  0  0  0  0
  -30.4701   16.2118   27.5674 C   0  0  0  0  0  0  0  0  0  0  0  0
  -31.0134   17.5005   27.5069 C   0  0  0  0  0  0  0  0  0  0  0  0
  -30.5487   13.9259   26.9301 O   0  0  0  0  0  0  0  0  0  0  0  0
  -32.7523   14.3542   25.4149 O   0  0  0  0  0  0  0  0  0  0  0  0
  -31.1227   13.3818   26.3543 H   0  0  0  0  0  0  0  0  0  0  0  0
  -33.5319   14.6661   24.9233 H   0  0  0  0  0  0  0  0  0  0  0  0
 18 19  2  0  0  0
 19 20  1  0  0  0
 20 21  2  0  0  0
 21 22  1  0  0  0
 22 23  2  0  0  0
 18 23  1  0  0  0
 23  1  1  0  0  0
  1  2  2  0  0  0
  2  3  1  0  0  0
  3  4  2  0  0  0
  3  5  1  0  0  0
  5  6  2  0  0  0
  6  7  1  0  0  0
  7  8  2  0  0  0
  8  9  1  0  0  0
  9 10  2  0  0  0
  5 10  1  0  0  0
 10 11  1  0  0  0
  1 11  1  0  0  0
  8 12  1  0  0  0
  6 13  1  0  0  0
  2 14  1  0  0  0
 21 24  1  0  0  0
 20 25  1  0  0  0
 12 15  1  0  0  0
 13 16  1  0  0  0
 14 17  1  0  0  0
 24 26  1  0  0  0
 25 27  1  0  0  0
M  END
> <minimizedAffinity>
-6.71932

$$$$
Quercetin


 27 29  0  0  0  0  0  0  0  0999 V2000
  -29.7911   18.6245   29.7047 C   0  0  0  0  0  0  0  0  0  0  0  0
  -29.7702   19.6319   30.6012 C   0  0  0  0  0  0  0  0  0  0  0  0
  -28.7822   19.5536   31.7110 C   0  0  0  0  0  0  0  0  0  0  0  0
  -28.6683   20.4256   32.5693 O   0  0  0  0  0  0  0  0  0  0  0  0
  -27.9159   18.3700   31.7556 C   0  0  0  0  0  0  0  0  0  0  0  0
  -26.9484   18.2078   32.7548 C   0  0  0  0  0  0  0  0  0  0  0  0
  -26.1412   17.0732   32.7762 C   0  0  0  0  0  0  0  0  0  0  0  0
  -26.3112   16.1030   31.7929 C   0  0  0  0  0  0  0  0  0  0  0  0
  -27.2694   16.2534   30.7937 C   0  0  0  0  0  0  0  0  0  0  0  0
  -28.0719   17.3945   30.7754 C   0  0  0  0  0  0  0  0  0  0  0  0
  -28.9897   17.4963   29.7620 O   0  0  0  0  0  0  0  0  0  0  0  0
  -25.5455   14.9749   31.7723 O   0  0  0  0  0  0  0  0  0  0  0  0
  -26.7379   19.1290   33.7460 O   0  0  0  0  0  0  0  0  0  0  0  0
  -30.6032   20.7366   30.5668 O   0  0  0  0  0  0  0  0  0  0  0  0
  -24.9251   15.0033   32.5207 H   0  0  0  0  0  0  0  0  0  0  0  0
  -27.3743   19.8700   33.6147 H   0  0  0  0  0  0  0  0  0  0  0  0
  -31.3058   20.5866   29.9125 H   0  0  0  0  0  0  0  0  0  0  0  0
  -31.8804   17.8690   28.5582 C   0  0  0  0  0  0  0  0  0  0  0  0
  -32.7256   17.8365   27.4443 C   0  0  0  0  0  0  0  0  0  0  0  0
  -32.3835   18.5710   26.3169 C   0  0  0  0  0  0  0  0  0  0  0  0
  -31.2198   19.3367   26.3022 C   0  0  0  0  0  0  0  0  0  0  0  0
  -30.3739   19.3755   27.4029 C   0  0  0  0  0  0  0  0  0  0  0  0
  -30.6941   18.6264   28.5413 C   0  0  0  0  0  0  0  0  0  0  0  0
  -30.8944   20.0575   25.1889 O   0  0  0  0  0  0  0  0  0  0  0  0
  -33.1592   18.5724   25.1917 O   0  0  0  0  0  0  0  0  0  0  0  0
  -31.6234   19.8857   24.5595 H   0  0  0  0  0  0  0  0  0  0  0  0
  -33.9263   17.9942   25.3468 H   0  0  0  0  0  0  0  0  0  0  0  0
 18 19  2  0  0  0
 19 20  1  0  0  0
 20 21  2  0  0  0
 21 22  1  0  0  0
 22 23  2  0  0  0
 18 23  1  0  0  0
 23  1  1  0  0  0
  1  2  2  0  0  0
  2  3  1  0  0  0
  3  4  2  0  0  0
  3  5  1  0  0  0
  5  6  2  0  0  0
  6  7  1  0  0  0
  7  8  2  0  0  0
  8  9  1  0  0  0
  9 10  2  0  0  0
  5 10  1  0  0  0
 10 11  1  0  0  0
  1 11  1  0  0  0
  8 12  1  0  0  0
  6 13  1  0  0  0
  2 14  1  0  0  0
 21 24  1  0  0  0
 20 25  1  0  0  0
 12 15  1  0  0  0
 13 16  1  0  0  0
 14 17  1  0  0  0
 24 26  1  0  0  0
 25 27  1  0  0  0
M  END
> <minimizedAffinity>
-6.65763

$$$$
