Quercetin


 27 29  0  0  0  0  0  0  0  0999 V2000
  -17.7714   -7.0752   10.1074 C   0  0  0  0  0  0  0  0  0  0  0  0
  -18.6517   -6.1117   10.4474 C   0  0  0  0  0  0  0  0  0  0  0  0
  -18.4509   -4.7536    9.8737 C   0  0  0  0  0  0  0  0  0  0  0  0
  -19.2042   -3.8106   10.1046 O   0  0  0  0  0  0  0  0  0  0  0  0
  -17.2926   -4.5619    8.9934 C   0  0  0  0  0  0  0  0  0  0  0  0
  -17.0226   -3.3239    8.3973 C   0  0  0  0  0  0  0  0  0  0  0  0
  -15.9146   -3.1679    7.5683 C   0  0  0  0  0  0  0  0  0  0  0  0
  -15.0791   -4.2579    7.3430 C   0  0  0  0  0  0  0  0  0  0  0  0
  -15.3376   -5.4942    7.9294 C   0  0  0  0  0  0  0  0  0  0  0  0
  -16.4517   -5.6451    8.7554 C   0  0  0  0  0  0  0  0  0  0  0  0
  -16.6648   -6.8868    9.2960 O   0  0  0  0  0  0  0  0  0  0  0  0
  -13.9821   -4.1543    6.5398 O   0  0  0  0  0  0  0  0  0  0  0  0
  -17.8095   -2.2187    8.5838 O   0  0  0  0  0  0  0  0  0  0  0  0
  -19.7313   -6.2919   11.2944 O   0  0  0  0  0  0  0  0  0  0  0  0
  -13.9260   -3.2442    6.2015 H   0  0  0  0  0  0  0  0  0  0  0  0
  -18.5461   -2.4667    9.1899 H   0  0  0  0  0  0  0  0  0  0  0  0
  -19.6525   -7.1556   11.7329 H   0  0  0  0  0  0  0  0  0  0  0  0
  -17.6589   -9.5402    9.7051 C   0  0  0  0  0  0  0  0  0  0  0  0
  -17.8190  -10.8619   10.1336 C   0  0  0  0  0  0  0  0  0  0  0  0
  -18.2190  -11.1028   11.4412 C   0  0  0  0  0  0  0  0  0  0  0  0
  -18.4467  -10.0416   12.3144 C   0  0  0  0  0  0  0  0  0  0  0  0
  -18.2907   -8.7257   11.8986 C   0  0  0  0  0  0  0  0  0  0  0  0
  -17.9058   -8.4641   10.5784 C   0  0  0  0  0  0  0  0  0  0  0  0
  -18.8372  -10.2901   13.5991 O   0  0  0  0  0  0  0  0  0  0  0  0
  -18.4055  -12.3697   11.9186 O   0  0  0  0  0  0  0  0  0  0  0  0
  -18.8731  -11.2656   13.6638 H   0  0  0  0  0  0  0  0  0  0  0  0
  -18.2167  -12.9992   11.2011 H   0  0  0  0  0  0  0  0  0  0  0  0
 18 19  2  0  0  0
 19 20  1  0  0  0
 20 21  2  0  0  0
 21 22  1  0  0  0
 22 23  2  0  0  0
 18 23  1  0  0  0
 23  1  1  0  0  0
  1  2  2  0  0  0
  2  3  1  0  0  0
  3  4  2  0  0  0
  3  5  1  0  0  0
  5  6  2  0  0  0
  6  7  1  0  0  0
  7  8  2  0  0  0
  8  9  1  0  0  0
  9 10  2  0  0  0
  5 10  1  0  0  0
 10 11  1  0  0  0
  1 11  1  0  0  0
  8 12  1  0  0  0
  6 13  1  0  0  0
  2 14  1  0  0  0
 21 24  1  0  0  0
 20 25  1  0  0  0
 12 15  1  0  0  0
 13 16  1  0  0  0
 14 17  1  0  0  0
 24 26  1  0  0  0
 25 27  1  0  0  0
M  END
> <minimizedAffinity>
-6.48706

$$$$
Quercetin


 27 29  0  0  0  0  0  0  0  0999 V2000
  -17.1708   -7.7088    9.3652 C   0  0  0  0  0  0  0  0  0  0  0  0
  -16.1163   -7.7410    8.5250 C   0  0  0  0  0  0  0  0  0  0  0  0
  -15.6412   -6.4505    7.9569 C   0  0  0  0  0  0  0  0  0  0  0  0
  -14.6791   -6.3668    7.1970 O   0  0  0  0  0  0  0  0  0  0  0  0
  -16.3733   -5.2384    8.3415 C   0  0  0  0  0  0  0  0  0  0  0  0
  -15.9985   -3.9750    7.8677 C   0  0  0  0  0  0  0  0  0  0  0  0
  -16.7125   -2.8407    8.2456 C   0  0  0  0  0  0  0  0  0  0  0  0
  -17.8039   -2.9806    9.0979 C   0  0  0  0  0  0  0  0  0  0  0  0
  -18.1857   -4.2314    9.5763 C   0  0  0  0  0  0  0  0  0  0  0  0
  -17.4636   -5.3634    9.1974 C   0  0  0  0  0  0  0  0  0  0  0  0
  -17.8760   -6.5671    9.7080 O   0  0  0  0  0  0  0  0  0  0  0  0
  -18.5342   -1.8999    9.4953 O   0  0  0  0  0  0  0  0  0  0  0  0
  -14.9347   -3.7787    7.0279 O   0  0  0  0  0  0  0  0  0  0  0  0
  -15.4415   -8.8893    8.1489 O   0  0  0  0  0  0  0  0  0  0  0  0
  -18.1578   -1.1005    9.0890 H   0  0  0  0  0  0  0  0  0  0  0  0
  -14.5281   -4.6564    6.8394 H   0  0  0  0  0  0  0  0  0  0  0  0
  -15.9469   -9.6666    8.4400 H   0  0  0  0  0  0  0  0  0  0  0  0
  -17.9678  -10.0765    9.2677 C   0  0  0  0  0  0  0  0  0  0  0  0
  -18.4950  -11.2197    9.8770 C   0  0  0  0  0  0  0  0  0  0  0  0
  -18.7353  -11.2048   11.2444 C   0  0  0  0  0  0  0  0  0  0  0  0
  -18.4448  -10.0696   11.9976 C   0  0  0  0  0  0  0  0  0  0  0  0
  -17.9214   -8.9293   11.4021 C   0  0  0  0  0  0  0  0  0  0  0  0
  -17.6900   -8.9206   10.0216 C   0  0  0  0  0  0  0  0  0  0  0  0
  -18.6826  -10.0668   13.3424 O   0  0  0  0  0  0  0  0  0  0  0  0
  -19.2604  -12.2840   11.8981 O   0  0  0  0  0  0  0  0  0  0  0  0
  -19.0363  -10.9586   13.5342 H   0  0  0  0  0  0  0  0  0  0  0  0
  -19.4153  -12.9913   11.2482 H   0  0  0  0  0  0  0  0  0  0  0  0
 18 19  2  0  0  0
 19 20  1  0  0  0
 20 21  2  0  0  0
 21 22  1  0  0  0
 22 23  2  0  0  0
 18 23  1  0  0  0
 23  1  1  0  0  0
  1  2  2  0  0  0
  2  3  1  0  0  0
  3  4  2  0  0  0
  3  5  1  0  0  0
  5  6  2  0  0  0
  6  7  1  0  0  0
  7  8  2  0  0  0
  8  9  1  0  0  0
  9 10  2  0  0  0
  5 10  1  0  0  0
 10 11  1  0  0  0
  1 11  1  0  0  0
  8 12  1  0  0  0
  6 13  1  0  0  0
  2 14  1  0  0  0
 21 24  1  0  0  0
 20 25  1  0  0  0
 12 15  1  0  0  0
 13 16  1  0  0  0
 14 17  1  0  0  0
 24 26  1  0  0  0
 25 27  1  0  0  0
M  END
> <minimizedAffinity>
-6.38771

$$$$
Quercetin


 27 29  0  0  0  0  0  0  0  0999 V2000
  -12.6677   -3.4338    8.3590 C   0  0  0  0  0  0  0  0  0  0  0  0
  -13.8730   -3.0895    7.8612 C   0  0  0  0  0  0  0  0  0  0  0  0
  -14.8962   -4.1599    7.7165 C   0  0  0  0  0  0  0  0  0  0  0  0
  -16.0297   -3.9501    7.2909 O   0  0  0  0  0  0  0  0  0  0  0  0
  -14.5059   -5.5186    8.1102 C   0  0  0  0  0  0  0  0  0  0  0  0
  -15.3999   -6.5926    8.0203 C   0  0  0  0  0  0  0  0  0  0  0  0
  -15.0030   -7.8730    8.3975 C   0  0  0  0  0  0  0  0  0  0  0  0
  -13.7060   -8.0702    8.8622 C   0  0  0  0  0  0  0  0  0  0  0  0
  -12.8081   -7.0100    8.9569 C   0  0  0  0  0  0  0  0  0  0  0  0
  -13.2134   -5.7289    8.5816 C   0  0  0  0  0  0  0  0  0  0  0  0
  -12.2927   -4.7208    8.7072 O   0  0  0  0  0  0  0  0  0  0  0  0
  -13.2710   -9.3052    9.2425 O   0  0  0  0  0  0  0  0  0  0  0  0
  -16.6863   -6.4567    7.5707 O   0  0  0  0  0  0  0  0  0  0  0  0
  -14.2301   -1.8103    7.4720 O   0  0  0  0  0  0  0  0  0  0  0  0
  -13.9958   -9.9430    9.1249 H   0  0  0  0  0  0  0  0  0  0  0  0
  -16.8294   -5.5104    7.3352 H   0  0  0  0  0  0  0  0  0  0  0  0
  -13.4364   -1.2500    7.4494 H   0  0  0  0  0  0  0  0  0  0  0  0
  -10.6841   -2.1337    7.5681 C   0  0  0  0  0  0  0  0  0  0  0  0
   -9.6463   -1.2226    7.7898 C   0  0  0  0  0  0  0  0  0  0  0  0
   -9.5346   -0.6182    9.0348 C   0  0  0  0  0  0  0  0  0  0  0  0
  -10.4506   -0.9091   10.0432 C   0  0  0  0  0  0  0  0  0  0  0  0
  -11.4844   -1.8124    9.8331 C   0  0  0  0  0  0  0  0  0  0  0  0
  -11.6011   -2.4448    8.5897 C   0  0  0  0  0  0  0  0  0  0  0  0
  -10.3328   -0.3067   11.2631 O   0  0  0  0  0  0  0  0  0  0  0  0
   -8.5367    0.2710    9.3200 O   0  0  0  0  0  0  0  0  0  0  0  0
   -9.5546    0.2798   11.1767 H   0  0  0  0  0  0  0  0  0  0  0  0
   -7.9771    0.3685    8.5300 H   0  0  0  0  0  0  0  0  0  0  0  0
 18 19  2  0  0  0
 19 20  1  0  0  0
 20 21  2  0  0  0
 21 22  1  0  0  0
 22 23  2  0  0  0
 18 23  1  0  0  0
 23  1  1  0  0  0
  1  2  2  0  0  0
  2  3  1  0  0  0
  3  4  2  0  0  0
  3  5  1  0  0  0
  5  6  2  0  0  0
  6  7  1  0  0  0
  7  8  2  0  0  0
  8  9  1  0  0  0
  9 10  2  0  0  0
  5 10  1  0  0  0
 10 11  1  0  0  0
  1 11  1  0  0  0
  8 12  1  0  0  0
  6 13  1  0  0  0
  2 14  1  0  0  0
 21 24  1  0  0  0
 20 25  1  0  0  0
 12 15  1  0  0  0
 13 16  1  0  0  0
 14 17  1  0  0  0
 24 26  1  0  0  0
 25 27  1  0  0  0
M  END
> <minimizedAffinity>
-6.33187

$$$$
Quercetin


 27 29  0  0  0  0  0  0  0  0999 V2000
  -12.1206   -3.9085    8.5783 C   0  0  0  0  0  0  0  0  0  0  0  0
  -12.0602   -4.9834    9.3907 C   0  0  0  0  0  0  0  0  0  0  0  0
  -13.0064   -6.1025    9.1335 C   0  0  0  0  0  0  0  0  0  0  0  0
  -13.0227   -7.1333    9.8023 O   0  0  0  0  0  0  0  0  0  0  0  0
  -13.9507   -5.9404    8.0220 C   0  0  0  0  0  0  0  0  0  0  0  0
  -14.8746   -6.9403    7.6941 C   0  0  0  0  0  0  0  0  0  0  0  0
  -15.7621   -6.7599    6.6362 C   0  0  0  0  0  0  0  0  0  0  0  0
  -15.7195   -5.5721    5.9121 C   0  0  0  0  0  0  0  0  0  0  0  0
  -14.8048   -4.5707    6.2281 C   0  0  0  0  0  0  0  0  0  0  0  0
  -13.9154   -4.7596    7.2862 C   0  0  0  0  0  0  0  0  0  0  0  0
  -13.0287   -3.7464    7.5451 O   0  0  0  0  0  0  0  0  0  0  0  0
  -16.5683   -5.3490    4.8686 O   0  0  0  0  0  0  0  0  0  0  0  0
  -14.9610   -8.1273    8.3716 O   0  0  0  0  0  0  0  0  0  0  0  0
  -11.1815   -5.1233   10.4507 O   0  0  0  0  0  0  0  0  0  0  0  0
  -17.1453   -6.1246    4.7623 H   0  0  0  0  0  0  0  0  0  0  0  0
  -14.2866   -8.1188    9.0902 H   0  0  0  0  0  0  0  0  0  0  0  0
  -10.7475   -4.2705   10.6205 H   0  0  0  0  0  0  0  0  0  0  0  0
  -10.2963   -2.4546    7.6791 C   0  0  0  0  0  0  0  0  0  0  0  0
   -9.3921   -1.3961    7.8137 C   0  0  0  0  0  0  0  0  0  0  0  0
   -9.3992   -0.6481    8.9834 C   0  0  0  0  0  0  0  0  0  0  0  0
  -10.3022   -0.9434   10.0021 C   0  0  0  0  0  0  0  0  0  0  0  0
  -11.2039   -1.9924    9.8784 C   0  0  0  0  0  0  0  0  0  0  0  0
  -11.1981   -2.7685    8.7134 C   0  0  0  0  0  0  0  0  0  0  0  0
  -10.3023   -0.1994   11.1473 O   0  0  0  0  0  0  0  0  0  0  0  0
   -8.5338    0.3907    9.1827 O   0  0  0  0  0  0  0  0  0  0  0  0
   -9.6037    0.4712   11.0082 H   0  0  0  0  0  0  0  0  0  0  0  0
   -7.9663    0.4728    8.3967 H   0  0  0  0  0  0  0  0  0  0  0  0
 18 19  2  0  0  0
 19 20  1  0  0  0
 20 21  2  0  0  0
 21 22  1  0  0  0
 22 23  2  0  0  0
 18 23  1  0  0  0
 23  1  1  0  0  0
  1  2  2  0  0  0
  2  3  1  0  0  0
  3  4  2  0  0  0
  3  5  1  0  0  0
  5  6  2  0  0  0
  6  7  1  0  0  0
  7  8  2  0  0  0
  8  9  1  0  0  0
  9 10  2  0  0  0
  5 10  1  0  0  0
 10 11  1  0  0  0
  1 11  1  0  0  0
  8 12  1  0  0  0
  6 13  1  0  0  0
  2 14  1  0  0  0
 21 24  1  0  0  0
 20 25  1  0  0  0
 12 15  1  0  0  0
 13 16  1  0  0  0
 14 17  1  0  0  0
 24 26  1  0  0  0
 25 27  1  0  0  0
M  END
> <minimizedAffinity>
-6.19216

$$$$
Quercetin


 27 29  0  0  0  0  0  0  0  0999 V2000
  -14.1502   -3.1468    7.5203 C   0  0  0  0  0  0  0  0  0  0  0  0
  -13.8353   -3.3947    6.2325 C   0  0  0  0  0  0  0  0  0  0  0  0
  -12.4881   -2.9813    5.7550 C   0  0  0  0  0  0  0  0  0  0  0  0
  -12.0953   -3.1763    4.6070 O   0  0  0  0  0  0  0  0  0  0  0  0
  -11.6091   -2.3143    6.7222 C   0  0  0  0  0  0  0  0  0  0  0  0
  -10.3194   -1.8955    6.3726 C   0  0  0  0  0  0  0  0  0  0  0  0
   -9.5065   -1.2617    7.3089 C   0  0  0  0  0  0  0  0  0  0  0  0
   -9.9944   -1.0484    8.5948 C   0  0  0  0  0  0  0  0  0  0  0  0
  -11.2748   -1.4610    8.9546 C   0  0  0  0  0  0  0  0  0  0  0  0
  -12.0826   -2.0994    8.0132 C   0  0  0  0  0  0  0  0  0  0  0  0
  -13.3288   -2.4952    8.4254 O   0  0  0  0  0  0  0  0  0  0  0  0
   -9.2365   -0.4317    9.5457 O   0  0  0  0  0  0  0  0  0  0  0  0
   -9.7885   -2.0790    5.1236 O   0  0  0  0  0  0  0  0  0  0  0  0
  -14.6753   -4.0059    5.3181 O   0  0  0  0  0  0  0  0  0  0  0  0
   -8.3746   -0.2009    9.1588 H   0  0  0  0  0  0  0  0  0  0  0  0
  -10.4658   -2.5290    4.5667 H   0  0  0  0  0  0  0  0  0  0  0  0
  -15.5689   -4.0655    5.6954 H   0  0  0  0  0  0  0  0  0  0  0  0
  -15.7503   -4.9234    8.2513 C   0  0  0  0  0  0  0  0  0  0  0  0
  -16.9837   -5.3235    8.7752 C   0  0  0  0  0  0  0  0  0  0  0  0
  -17.8981   -4.3533    9.1629 C   0  0  0  0  0  0  0  0  0  0  0  0
  -17.5845   -3.0016    9.0404 C   0  0  0  0  0  0  0  0  0  0  0  0
  -16.3626   -2.5939    8.5212 C   0  0  0  0  0  0  0  0  0  0  0  0
  -15.4361   -3.5587    8.1082 C   0  0  0  0  0  0  0  0  0  0  0  0
  -18.4903   -2.0557    9.4274 O   0  0  0  0  0  0  0  0  0  0  0  0
  -19.1249   -4.6775    9.6705 O   0  0  0  0  0  0  0  0  0  0  0  0
  -19.2561   -2.5660    9.7594 H   0  0  0  0  0  0  0  0  0  0  0  0
  -19.2026   -5.6471    9.6906 H   0  0  0  0  0  0  0  0  0  0  0  0
 18 19  2  0  0  0
 19 20  1  0  0  0
 20 21  2  0  0  0
 21 22  1  0  0  0
 22 23  2  0  0  0
 18 23  1  0  0  0
 23  1  1  0  0  0
  1  2  2  0  0  0
  2  3  1  0  0  0
  3  4  2  0  0  0
  3  5  1  0  0  0
  5  6  2  0  0  0
  6  7  1  0  0  0
  7  8  2  0  0  0
  8  9  1  0  0  0
  9 10  2  0  0  0
  5 10  1  0  0  0
 10 11  1  0  0  0
  1 11  1  0  0  0
  8 12  1  0  0  0
  6 13  1  0  0  0
  2 14  1  0  0  0
 21 24  1  0  0  0
 20 25  1  0  0  0
 12 15  1  0  0  0
 13 16  1  0  0  0
 14 17  1  0  0  0
 24 26  1  0  0  0
 25 27  1  0  0  0
M  END
> <minimizedAffinity>
-6.15489

$$$$
