Quercetin


 27 29  0  0  0  0  0  0  0  0999 V2000
  -29.1392  -13.4830   21.0596 C   0  0  0  0  0  0  0  0  0  0  0  0
  -29.3936  -12.7429   19.9612 C   0  0  0  0  0  0  0  0  0  0  0  0
  -30.5295  -11.7836   20.0178 C   0  0  0  0  0  0  0  0  0  0  0  0
  -30.8346  -11.0504   19.0801 O   0  0  0  0  0  0  0  0  0  0  0  0
  -31.3017  -11.7312   21.2645 C   0  0  0  0  0  0  0  0  0  0  0  0
  -32.3831  -10.8553   21.4200 C   0  0  0  0  0  0  0  0  0  0  0  0
  -33.1015  -10.8277   22.6127 C   0  0  0  0  0  0  0  0  0  0  0  0
  -32.7314  -11.6838   23.6457 C   0  0  0  0  0  0  0  0  0  0  0  0
  -31.6574  -12.5587   23.5033 C   0  0  0  0  0  0  0  0  0  0  0  0
  -30.9390  -12.5783   22.3075 C   0  0  0  0  0  0  0  0  0  0  0  0
  -29.8840  -13.4501   22.2270 O   0  0  0  0  0  0  0  0  0  0  0  0
  -33.4044  -11.6939   24.8315 O   0  0  0  0  0  0  0  0  0  0  0  0
  -32.7911   -9.9921   20.4381 O   0  0  0  0  0  0  0  0  0  0  0  0
  -28.6752  -12.8104   18.7802 O   0  0  0  0  0  0  0  0  0  0  0  0
  -34.1222  -11.0390   24.7903 H   0  0  0  0  0  0  0  0  0  0  0  0
  -32.2053  -10.1201   19.6560 H   0  0  0  0  0  0  0  0  0  0  0  0
  -28.0858  -13.5825   18.8085 H   0  0  0  0  0  0  0  0  0  0  0  0
  -26.8120  -14.0579   21.7696 C   0  0  0  0  0  0  0  0  0  0  0  0
  -25.7218  -14.9331   21.8078 C   0  0  0  0  0  0  0  0  0  0  0  0
  -25.8373  -16.1804   21.2089 C   0  0  0  0  0  0  0  0  0  0  0  0
  -27.0268  -16.5558   20.5887 C   0  0  0  0  0  0  0  0  0  0  0  0
  -28.1150  -15.6940   20.5451 C   0  0  0  0  0  0  0  0  0  0  0  0
  -28.0097  -14.4256   21.1280 C   0  0  0  0  0  0  0  0  0  0  0  0
  -27.1304  -17.7860   20.0050 O   0  0  0  0  0  0  0  0  0  0  0  0
  -24.8058  -17.0768   21.2002 O   0  0  0  0  0  0  0  0  0  0  0  0
  -26.2631  -18.2101   20.1633 H   0  0  0  0  0  0  0  0  0  0  0  0
  -24.0475  -16.6769   21.6603 H   0  0  0  0  0  0  0  0  0  0  0  0
 18 19  2  0  0  0
 19 20  1  0  0  0
 20 21  2  0  0  0
 21 22  1  0  0  0
 22 23  2  0  0  0
 18 23  1  0  0  0
 23  1  1  0  0  0
  1  2  2  0  0  0
  2  3  1  0  0  0
  3  4  2  0  0  0
  3  5  1  0  0  0
  5  6  2  0  0  0
  6  7  1  0  0  0
  7  8  2  0  0  0
  8  9  1  0  0  0
  9 10  2  0  0  0
  5 10  1  0  0  0
 10 11  1  0  0  0
  1 11  1  0  0  0
  8 12  1  0  0  0
  6 13  1  0  0  0
  2 14  1  0  0  0
 21 24  1  0  0  0
 20 25  1  0  0  0
 12 15  1  0  0  0
 13 16  1  0  0  0
 14 17  1  0  0  0
 24 26  1  0  0  0
 25 27  1  0  0  0
M  END
> <minimizedAffinity>
-6.64717

$$$$
Quercetin


 27 29  0  0  0  0  0  0  0  0999 V2000
  -29.1397  -13.4092   21.1106 C   0  0  0  0  0  0  0  0  0  0  0  0
  -29.4359  -12.7398   19.9778 C   0  0  0  0  0  0  0  0  0  0  0  0
  -30.5868  -11.7973   20.0087 C   0  0  0  0  0  0  0  0  0  0  0  0
  -30.9293  -11.1261   19.0380 O   0  0  0  0  0  0  0  0  0  0  0  0
  -31.3268  -11.6835   21.2707 C   0  0  0  0  0  0  0  0  0  0  0  0
  -32.4192  -10.8175   21.4037 C   0  0  0  0  0  0  0  0  0  0  0  0
  -33.1064  -10.7308   22.6118 C   0  0  0  0  0  0  0  0  0  0  0  0
  -32.6942  -11.5180   23.6830 C   0  0  0  0  0  0  0  0  0  0  0  0
  -31.6089  -12.3823   23.5632 C   0  0  0  0  0  0  0  0  0  0  0  0
  -30.9219  -12.4612   22.3515 C   0  0  0  0  0  0  0  0  0  0  0  0
  -29.8541  -13.3191   22.2938 O   0  0  0  0  0  0  0  0  0  0  0  0
  -33.3355  -11.4685   24.8852 O   0  0  0  0  0  0  0  0  0  0  0  0
  -32.8680  -10.0208   20.3842 O   0  0  0  0  0  0  0  0  0  0  0  0
  -28.7476  -12.8656   18.7837 O   0  0  0  0  0  0  0  0  0  0  0  0
  -34.0657  -10.8289   24.8251 H   0  0  0  0  0  0  0  0  0  0  0  0
  -32.3007  -10.1855   19.5953 H   0  0  0  0  0  0  0  0  0  0  0  0
  -28.1441  -13.6251   18.8414 H   0  0  0  0  0  0  0  0  0  0  0  0
  -28.1495  -15.6966   20.9160 C   0  0  0  0  0  0  0  0  0  0  0  0
  -27.0738  -16.5822   21.0365 C   0  0  0  0  0  0  0  0  0  0  0  0
  -25.8385  -16.0916   21.4378 C   0  0  0  0  0  0  0  0  0  0  0  0
  -25.6734  -14.7346   21.7056 C   0  0  0  0  0  0  0  0  0  0  0  0
  -26.7353  -13.8471   21.5891 C   0  0  0  0  0  0  0  0  0  0  0  0
  -27.9923  -14.3277   21.2035 C   0  0  0  0  0  0  0  0  0  0  0  0
  -24.4533  -14.2624   22.0970 O   0  0  0  0  0  0  0  0  0  0  0  0
  -24.7508  -16.9056   21.5868 O   0  0  0  0  0  0  0  0  0  0  0  0
  -23.8721  -15.0492   22.1020 H   0  0  0  0  0  0  0  0  0  0  0  0
  -25.0173  -17.8165   21.3728 H   0  0  0  0  0  0  0  0  0  0  0  0
 18 19  2  0  0  0
 19 20  1  0  0  0
 20 21  2  0  0  0
 21 22  1  0  0  0
 22 23  2  0  0  0
 18 23  1  0  0  0
 23  1  1  0  0  0
  1  2  2  0  0  0
  2  3  1  0  0  0
  3  4  2  0  0  0
  3  5  1  0  0  0
  5  6  2  0  0  0
  6  7  1  0  0  0
  7  8  2  0  0  0
  8  9  1  0  0  0
  9 10  2  0  0  0
  5 10  1  0  0  0
 10 11  1  0  0  0
  1 11  1  0  0  0
  8 12  1  0  0  0
  6 13  1  0  0  0
  2 14  1  0  0  0
 21 24  1  0  0  0
 20 25  1  0  0  0
 12 15  1  0  0  0
 13 16  1  0  0  0
 14 17  1  0  0  0
 24 26  1  0  0  0
 25 27  1  0  0  0
M  END
> <minimizedAffinity>
-6.57096

$$$$
Quercetin


 27 29  0  0  0  0  0  0  0  0999 V2000
  -32.2493  -11.6051   23.2127 C   0  0  0  0  0  0  0  0  0  0  0  0
  -32.4099  -11.1235   21.9632 C   0  0  0  0  0  0  0  0  0  0  0  0
  -31.3866  -11.4812   20.9441 C   0  0  0  0  0  0  0  0  0  0  0  0
  -31.4480  -11.1102   19.7742 O   0  0  0  0  0  0  0  0  0  0  0  0
  -30.2651  -12.3186   21.3848 C   0  0  0  0  0  0  0  0  0  0  0  0
  -29.2561  -12.7167   20.4993 C   0  0  0  0  0  0  0  0  0  0  0  0
  -28.2007  -13.5090   20.9441 C   0  0  0  0  0  0  0  0  0  0  0  0
  -28.1620  -13.8969   22.2801 C   0  0  0  0  0  0  0  0  0  0  0  0
  -29.1599  -13.5080   23.1701 C   0  0  0  0  0  0  0  0  0  0  0  0
  -30.2168  -12.7179   22.7171 C   0  0  0  0  0  0  0  0  0  0  0  0
  -31.1774  -12.3750   23.6332 O   0  0  0  0  0  0  0  0  0  0  0  0
  -27.1490  -14.6717   22.7627 O   0  0  0  0  0  0  0  0  0  0  0  0
  -29.2434  -12.3648   19.1759 O   0  0  0  0  0  0  0  0  0  0  0  0
  -33.4587  -10.3170   21.5569 O   0  0  0  0  0  0  0  0  0  0  0  0
  -26.5303  -14.8661   22.0379 H   0  0  0  0  0  0  0  0  0  0  0  0
  -30.0361  -11.8059   19.0006 H   0  0  0  0  0  0  0  0  0  0  0  0
  -33.9516  -10.0161   22.3385 H   0  0  0  0  0  0  0  0  0  0  0  0
  -34.4790  -11.9988   24.2728 C   0  0  0  0  0  0  0  0  0  0  0  0
  -35.4284  -11.7384   25.2663 C   0  0  0  0  0  0  0  0  0  0  0  0
  -35.1183  -10.8362   26.2751 C   0  0  0  0  0  0  0  0  0  0  0  0
  -33.8748  -10.2089   26.3005 C   0  0  0  0  0  0  0  0  0  0  0  0
  -32.9253  -10.4605   25.3186 C   0  0  0  0  0  0  0  0  0  0  0  0
  -33.2281  -11.3534   24.2839 C   0  0  0  0  0  0  0  0  0  0  0  0
  -33.5794   -9.3253   27.2989 O   0  0  0  0  0  0  0  0  0  0  0  0
  -36.0056  -10.5286   27.2680 O   0  0  0  0  0  0  0  0  0  0  0  0
  -34.3773   -9.3138   27.8649 H   0  0  0  0  0  0  0  0  0  0  0  0
  -36.8233  -11.0336   27.1165 H   0  0  0  0  0  0  0  0  0  0  0  0
 18 19  2  0  0  0
 19 20  1  0  0  0
 20 21  2  0  0  0
 21 22  1  0  0  0
 22 23  2  0  0  0
 18 23  1  0  0  0
 23  1  1  0  0  0
  1  2  2  0  0  0
  2  3  1  0  0  0
  3  4  2  0  0  0
  3  5  1  0  0  0
  5  6  2  0  0  0
  6  7  1  0  0  0
  7  8  2  0  0  0
  8  9  1  0  0  0
  9 10  2  0  0  0
  5 10  1  0  0  0
 10 11  1  0  0  0
  1 11  1  0  0  0
  8 12  1  0  0  0
  6 13  1  0  0  0
  2 14  1  0  0  0
 21 24  1  0  0  0
 20 25  1  0  0  0
 12 15  1  0  0  0
 13 16  1  0  0  0
 14 17  1  0  0  0
 24 26  1  0  0  0
 25 27  1  0  0  0
M  END
> <minimizedAffinity>
-6.42930

$$$$
Quercetin


 27 29  0  0  0  0  0  0  0  0999 V2000
  -26.3873  -14.5612   21.4752 C   0  0  0  0  0  0  0  0  0  0  0  0
  -26.4076  -15.8793   21.1905 C   0  0  0  0  0  0  0  0  0  0  0  0
  -25.2459  -16.7016   21.6242 C   0  0  0  0  0  0  0  0  0  0  0  0
  -25.1729  -17.9129   21.4307 O   0  0  0  0  0  0  0  0  0  0  0  0
  -24.1529  -16.0070   22.3143 C   0  0  0  0  0  0  0  0  0  0  0  0
  -23.0206  -16.6938   22.7695 C   0  0  0  0  0  0  0  0  0  0  0  0
  -21.9958  -16.0100   23.4189 C   0  0  0  0  0  0  0  0  0  0  0  0
  -22.1118  -14.6359   23.6066 C   0  0  0  0  0  0  0  0  0  0  0  0
  -23.2332  -13.9421   23.1591 C   0  0  0  0  0  0  0  0  0  0  0  0
  -24.2584  -14.6336   22.5132 C   0  0  0  0  0  0  0  0  0  0  0  0
  -25.3441  -13.9027   22.1049 O   0  0  0  0  0  0  0  0  0  0  0  0
  -21.1347  -13.9230   24.2360 O   0  0  0  0  0  0  0  0  0  0  0  0
  -22.8536  -18.0439   22.6122 O   0  0  0  0  0  0  0  0  0  0  0  0
  -27.4315  -16.5266   20.5211 O   0  0  0  0  0  0  0  0  0  0  0  0
  -20.4193  -14.5299   24.4922 H   0  0  0  0  0  0  0  0  0  0  0  0
  -23.6422  -18.3961   22.1373 H   0  0  0  0  0  0  0  0  0  0  0  0
  -28.0346  -15.8648   20.1434 H   0  0  0  0  0  0  0  0  0  0  0  0
  -27.4764  -12.9032   19.9535 C   0  0  0  0  0  0  0  0  0  0  0  0
  -28.5185  -12.0242   19.6413 C   0  0  0  0  0  0  0  0  0  0  0  0
  -29.5945  -11.9179   20.5123 C   0  0  0  0  0  0  0  0  0  0  0  0
  -29.6377  -12.6847   21.6744 C   0  0  0  0  0  0  0  0  0  0  0  0
  -28.6081  -13.5604   21.9936 C   0  0  0  0  0  0  0  0  0  0  0  0
  -27.5068  -13.6665   21.1359 C   0  0  0  0  0  0  0  0  0  0  0  0
  -30.7022  -12.5742   22.5226 O   0  0  0  0  0  0  0  0  0  0  0  0
  -30.6383  -11.0690   20.2720 O   0  0  0  0  0  0  0  0  0  0  0  0
  -31.2915  -11.9188   22.0981 H   0  0  0  0  0  0  0  0  0  0  0  0
  -30.4673  -10.6008   19.4363 H   0  0  0  0  0  0  0  0  0  0  0  0
 18 19  2  0  0  0
 19 20  1  0  0  0
 20 21  2  0  0  0
 21 22  1  0  0  0
 22 23  2  0  0  0
 18 23  1  0  0  0
 23  1  1  0  0  0
  1  2  2  0  0  0
  2  3  1  0  0  0
  3  4  2  0  0  0
  3  5  1  0  0  0
  5  6  2  0  0  0
  6  7  1  0  0  0
  7  8  2  0  0  0
  8  9  1  0  0  0
  9 10  2  0  0  0
  5 10  1  0  0  0
 10 11  1  0  0  0
  1 11  1  0  0  0
  8 12  1  0  0  0
  6 13  1  0  0  0
  2 14  1  0  0  0
 21 24  1  0  0  0
 20 25  1  0  0  0
 12 15  1  0  0  0
 13 16  1  0  0  0
 14 17  1  0  0  0
 24 26  1  0  0  0
 25 27  1  0  0  0
M  END
> <minimizedAffinity>
-6.33684

$$$$
Quercetin


 27 29  0  0  0  0  0  0  0  0999 V2000
  -28.7251  -14.1976   20.6642 C   0  0  0  0  0  0  0  0  0  0  0  0
  -28.9075  -15.3657   20.0151 C   0  0  0  0  0  0  0  0  0  0  0  0
  -27.8417  -16.3976   20.1293 C   0  0  0  0  0  0  0  0  0  0  0  0
  -27.9168  -17.5006   19.5929 O   0  0  0  0  0  0  0  0  0  0  0  0
  -26.6590  -16.0548   20.9275 C   0  0  0  0  0  0  0  0  0  0  0  0
  -25.6059  -16.9610   21.1029 C   0  0  0  0  0  0  0  0  0  0  0  0
  -24.4932  -16.6094   21.8628 C   0  0  0  0  0  0  0  0  0  0  0  0
  -24.4416  -15.3452   22.4426 C   0  0  0  0  0  0  0  0  0  0  0  0
  -25.4829  -14.4357   22.2761 C   0  0  0  0  0  0  0  0  0  0  0  0
  -26.5969  -14.7958   21.5174 C   0  0  0  0  0  0  0  0  0  0  0  0
  -27.5974  -13.8662   21.3970 O   0  0  0  0  0  0  0  0  0  0  0  0
  -23.3732  -14.9549   23.1945 O   0  0  0  0  0  0  0  0  0  0  0  0
  -25.6034  -18.2165   20.5560 O   0  0  0  0  0  0  0  0  0  0  0  0
  -30.0155  -15.6769   19.2465 O   0  0  0  0  0  0  0  0  0  0  0  0
  -22.7289  -15.6828   23.2256 H   0  0  0  0  0  0  0  0  0  0  0  0
  -26.4385  -18.3290   20.0449 H   0  0  0  0  0  0  0  0  0  0  0  0
  -30.5445  -14.8735   19.1086 H   0  0  0  0  0  0  0  0  0  0  0  0
  -29.8576  -12.2652   19.5535 C   0  0  0  0  0  0  0  0  0  0  0  0
  -30.7926  -11.2250   19.5547 C   0  0  0  0  0  0  0  0  0  0  0  0
  -31.6131  -11.0576   20.6622 C   0  0  0  0  0  0  0  0  0  0  0  0
  -31.5114  -11.9211   21.7505 C   0  0  0  0  0  0  0  0  0  0  0  0
  -30.5861  -12.9568   21.7592 C   0  0  0  0  0  0  0  0  0  0  0  0
  -29.7383  -13.1289   20.6586 C   0  0  0  0  0  0  0  0  0  0  0  0
  -32.3253  -11.7488   22.8334 O   0  0  0  0  0  0  0  0  0  0  0  0
  -32.5383  -10.0540   20.7316 O   0  0  0  0  0  0  0  0  0  0  0  0
  -32.8855  -10.9804   22.6037 H   0  0  0  0  0  0  0  0  0  0  0  0
  -32.4900   -9.5344   19.9104 H   0  0  0  0  0  0  0  0  0  0  0  0
 18 19  2  0  0  0
 19 20  1  0  0  0
 20 21  2  0  0  0
 21 22  1  0  0  0
 22 23  2  0  0  0
 18 23  1  0  0  0
 23  1  1  0  0  0
  1  2  2  0  0  0
  2  3  1  0  0  0
  3  4  2  0  0  0
  3  5  1  0  0  0
  5  6  2  0  0  0
  6  7  1  0  0  0
  7  8  2  0  0  0
  8  9  1  0  0  0
  9 10  2  0  0  0
  5 10  1  0  0  0
 10 11  1  0  0  0
  1 11  1  0  0  0
  8 12  1  0  0  0
  6 13  1  0  0  0
  2 14  1  0  0  0
 21 24  1  0  0  0
 20 25  1  0  0  0
 12 15  1  0  0  0
 13 16  1  0  0  0
 14 17  1  0  0  0
 24 26  1  0  0  0
 25 27  1  0  0  0
M  END
> <minimizedAffinity>
-6.28361

$$$$
