
 OpenBabel10152114563D

 32 34  0  0  0  0  0  0  0  0999 V2000
   55.8230   24.0560  -13.9790 C   0  0  0  0  0  0  0  0  0  0  0  0
   55.5280   22.7360  -13.6250 C   0  0  0  0  0  0  0  0  0  0  0  0
   56.4350   22.0280  -12.8480 C   0  0  0  0  0  0  0  0  0  0  0  0
   57.6250   22.6230  -12.4370 C   0  0  0  0  0  0  0  0  0  0  0  0
   57.9270   23.9340  -12.7820 C   0  0  0  0  0  0  0  0  0  0  0  0
   57.0160   24.6690  -13.5500 C   0  0  0  0  0  0  0  0  0  0  0  0
   57.3000   26.0720  -13.8960 C   0  0  0  0  0  0  0  0  0  0  0  0
   57.4570   26.4810  -15.1710 C   0  0  0  0  0  0  0  0  0  0  0  0
   57.7930   27.9120  -15.4050 C   0  0  0  0  0  0  0  0  0  0  0  0
   57.9740   28.3830  -16.5250 O   0  0  0  0  0  0  0  0  0  0  0  0
   57.9090   28.7750  -14.2240 C   0  0  0  0  0  0  0  0  0  0  0  0
   58.2300   30.1330  -14.3380 C   0  0  0  0  0  0  0  0  0  0  0  0
   58.3310   30.9320  -13.2020 C   0  0  0  0  0  0  0  0  0  0  0  0
   58.1050   30.3620  -11.9520 C   0  0  0  0  0  0  0  0  0  0  0  0
   57.7850   29.0120  -11.8260 C   0  0  0  0  0  0  0  0  0  0  0  0
   57.6900   28.2170  -12.9680 C   0  0  0  0  0  0  0  0  0  0  0  0
   57.3850   26.8930  -12.7840 O   0  0  0  0  0  0  0  0  0  0  0  0
   58.1910   31.1020  -10.8110 O   0  0  0  0  0  0  0  0  0  0  0  0
   58.4620   30.7460  -15.5410 O   0  0  0  0  0  0  0  0  0  0  0  0
   57.3270   25.6680  -16.2830 O   0  0  0  0  0  0  0  0  0  0  0  0
   58.5110   21.9170  -11.6740 O   0  0  0  0  0  0  0  0  0  0  0  0
   56.2020   20.7390  -12.4580 O   0  0  0  0  0  0  0  0  0  0  0  0
   55.1140   24.6090  -14.5950 H   0  0  0  0  0  0  0  0  0  0  0  0
   54.6000   22.2870  -13.9640 H   0  0  0  0  0  0  0  0  0  0  0  0
   58.8620   24.3740  -12.4460 H   0  0  0  0  0  0  0  0  0  0  0  0
   58.5820   31.9820  -13.3110 H   0  0  0  0  0  0  0  0  0  0  0  0
   57.6130   28.5860  -10.8410 H   0  0  0  0  0  0  0  0  0  0  0  0
   57.3750   30.9800  -10.2950 H   0  0  0  0  0  0  0  0  0  0  0  0
   58.8490   31.6350  -15.3610 H   0  0  0  0  0  0  0  0  0  0  0  0
   58.1350   25.1390  -16.3890 H   0  0  0  0  0  0  0  0  0  0  0  0
   59.0070   22.5960  -11.1760 H   0  0  0  0  0  0  0  0  0  0  0  0
   55.5860   20.3320  -13.0920 H   0  0  0  0  0  0  0  0  0  0  0  0
  1  2  2  0  0  0  0
  1  6  1  0  0  0  0
  2  3  1  0  0  0  0
  3 22  1  0  0  0  0
  3  4  2  0  0  0  0
  4 21  1  0  0  0  0
  5 25  1  0  0  0  0
  5  4  1  0  0  0  0
  6  5  2  0  0  0  0
  7  6  1  0  0  0  0
  7 17  1  0  0  0  0
  8  7  2  0  0  0  0
  9  8  1  0  0  0  0
  9 11  1  0  0  0  0
 10  9  2  0  0  0  0
 11 16  1  0  0  0  0
 12 11  2  0  0  0  0
 12 13  1  0  0  0  0
 13 14  2  0  0  0  0
 14 15  1  0  0  0  0
 14 18  1  0  0  0  0
 15 27  1  0  0  0  0
 16 17  1  0  0  0  0
 16 15  2  0  0  0  0
 18 28  1  0  0  0  0
 19 29  1  0  0  0  0
 19 12  1  0  0  0  0
 20  8  1  0  0  0  0
 21 31  1  0  0  0  0
 23  1  1  0  0  0  0
 24  2  1  0  0  0  0
 26 13  1  0  0  0  0
 30 20  1  0  0  0  0
 32 22  1  0  0  0  0
M  END
>  <Pose>
3

>  <Score>
-4.48

$$$$

 OpenBabel10152114563D

 32 34  0  0  0  0  0  0  0  0999 V2000
   58.6870   28.3210  -14.5220 C   0  0  0  0  0  0  0  0  0  0  0  0
   59.1290   29.6200  -14.2520 C   0  0  0  0  0  0  0  0  0  0  0  0
   58.7810   30.2130  -13.0450 C   0  0  0  0  0  0  0  0  0  0  0  0
   57.9960   29.5240  -12.1230 C   0  0  0  0  0  0  0  0  0  0  0  0
   57.5540   28.2340  -12.3810 C   0  0  0  0  0  0  0  0  0  0  0  0
   57.9100   27.6140  -13.5850 C   0  0  0  0  0  0  0  0  0  0  0  0
   57.4820   26.2330  -13.8620 C   0  0  0  0  0  0  0  0  0  0  0  0
   56.5940   25.9350  -14.8330 C   0  0  0  0  0  0  0  0  0  0  0  0
   56.1920   24.5110  -14.9940 C   0  0  0  0  0  0  0  0  0  0  0  0
   55.3780   24.1360  -15.8340 O   0  0  0  0  0  0  0  0  0  0  0  0
   56.8100   23.5340  -14.0910 C   0  0  0  0  0  0  0  0  0  0  0  0
   56.4910   22.1720  -14.1570 C   0  0  0  0  0  0  0  0  0  0  0  0
   57.0950   21.2640  -13.2900 C   0  0  0  0  0  0  0  0  0  0  0  0
   58.0210   21.7290  -12.3620 C   0  0  0  0  0  0  0  0  0  0  0  0
   58.3460   23.0810  -12.2860 C   0  0  0  0  0  0  0  0  0  0  0  0
   57.7340   23.9850  -13.1540 C   0  0  0  0  0  0  0  0  0  0  0  0
   58.0830   25.3050  -13.0270 O   0  0  0  0  0  0  0  0  0  0  0  0
   58.6390   20.8780  -11.4930 O   0  0  0  0  0  0  0  0  0  0  0  0
   55.5870   21.6600  -15.0500 O   0  0  0  0  0  0  0  0  0  0  0  0
   56.0290   26.8580  -15.6960 O   0  0  0  0  0  0  0  0  0  0  0  0
   57.6590   30.1180  -10.9400 O   0  0  0  0  0  0  0  0  0  0  0  0
   59.1900   31.4740  -12.7150 O   0  0  0  0  0  0  0  0  0  0  0  0
   58.9540   27.8600  -15.4720 H   0  0  0  0  0  0  0  0  0  0  0  0
   59.7320   30.1430  -14.9870 H   0  0  0  0  0  0  0  0  0  0  0  0
   56.9430   27.7200  -11.6430 H   0  0  0  0  0  0  0  0  0  0  0  0
   56.8320   20.2130  -13.3560 H   0  0  0  0  0  0  0  0  0  0  0  0
   59.0720   23.4230  -11.5530 H   0  0  0  0  0  0  0  0  0  0  0  0
   58.9980   21.3950  -10.7510 H   0  0  0  0  0  0  0  0  0  0  0  0
   56.0010   21.6720  -15.9440 H   0  0  0  0  0  0  0  0  0  0  0  0
   56.6050   26.9660  -16.4700 H   0  0  0  0  0  0  0  0  0  0  0  0
   56.6840   30.1940  -10.9690 H   0  0  0  0  0  0  0  0  0  0  0  0
   59.4390   31.4800  -11.7740 H   0  0  0  0  0  0  0  0  0  0  0  0
  1  2  2  0  0  0  0
  1  6  1  0  0  0  0
  2  3  1  0  0  0  0
  3 22  1  0  0  0  0
  3  4  2  0  0  0  0
  4 21  1  0  0  0  0
  5  4  1  0  0  0  0
  5 25  1  0  0  0  0
  6  5  2  0  0  0  0
  7  6  1  0  0  0  0
  7 17  1  0  0  0  0
  8  7  2  0  0  0  0
  9  8  1  0  0  0  0
  9 11  1  0  0  0  0
 10  9  2  0  0  0  0
 11 16  1  0  0  0  0
 12 11  2  0  0  0  0
 12 13  1  0  0  0  0
 13 14  2  0  0  0  0
 14 15  1  0  0  0  0
 14 18  1  0  0  0  0
 15 27  1  0  0  0  0
 16 17  1  0  0  0  0
 16 15  2  0  0  0  0
 18 28  1  0  0  0  0
 19 12  1  0  0  0  0
 20  8  1  0  0  0  0
 22 32  1  0  0  0  0
 23  1  1  0  0  0  0
 24  2  1  0  0  0  0
 26 13  1  0  0  0  0
 29 19  1  0  0  0  0
 30 20  1  0  0  0  0
 31 21  1  0  0  0  0
M  END
>  <Pose>
1

>  <Score>
-4.37

$$$$

 OpenBabel10152114563D

 32 34  0  0  0  0  0  0  0  0999 V2000
   55.7100   23.1150  -13.4460 C   0  0  0  0  0  0  0  0  0  0  0  0
   55.5150   21.8820  -12.8150 C   0  0  0  0  0  0  0  0  0  0  0  0
   56.5200   21.3740  -12.0020 C   0  0  0  0  0  0  0  0  0  0  0  0
   57.7080   22.0800  -11.8270 C   0  0  0  0  0  0  0  0  0  0  0  0
   57.9110   23.3050  -12.4490 C   0  0  0  0  0  0  0  0  0  0  0  0
   56.9020   23.8400  -13.2570 C   0  0  0  0  0  0  0  0  0  0  0  0
   57.0830   25.1550  -13.8950 C   0  0  0  0  0  0  0  0  0  0  0  0
   57.1440   25.3040  -15.2340 C   0  0  0  0  0  0  0  0  0  0  0  0
   57.3820   26.6710  -15.7720 C   0  0  0  0  0  0  0  0  0  0  0  0
   57.4720   26.9120  -16.9730 O   0  0  0  0  0  0  0  0  0  0  0  0
   57.5120   27.7610  -14.7980 C   0  0  0  0  0  0  0  0  0  0  0  0
   57.7460   29.0810  -15.2030 C   0  0  0  0  0  0  0  0  0  0  0  0
   57.8620   30.0970  -14.2590 C   0  0  0  0  0  0  0  0  0  0  0  0
   57.7400   29.7840  -12.9080 C   0  0  0  0  0  0  0  0  0  0  0  0
   57.5080   28.4750  -12.4930 C   0  0  0  0  0  0  0  0  0  0  0  0
   57.3970   27.4600  -13.4440 C   0  0  0  0  0  0  0  0  0  0  0  0
   57.1820   26.1890  -12.9780 O   0  0  0  0  0  0  0  0  0  0  0  0
   57.8460   30.7450  -11.9470 O   0  0  0  0  0  0  0  0  0  0  0  0
   57.8740   29.4460  -16.5170 O   0  0  0  0  0  0  0  0  0  0  0  0
   57.0000   24.2760  -16.1500 O   0  0  0  0  0  0  0  0  0  0  0  0
   58.6900   21.5700  -11.0280 O   0  0  0  0  0  0  0  0  0  0  0  0
   56.3870   20.1810  -11.3480 O   0  0  0  0  0  0  0  0  0  0  0  0
   54.9250   23.5090  -14.0890 H   0  0  0  0  0  0  0  0  0  0  0  0
   54.5860   21.3430  -12.9720 H   0  0  0  0  0  0  0  0  0  0  0  0
   58.8480   23.8340  -12.2940 H   0  0  0  0  0  0  0  0  0  0  0  0
   58.0450   31.1140  -14.5930 H   0  0  0  0  0  0  0  0  0  0  0  0
   57.4170   28.2510  -11.4340 H   0  0  0  0  0  0  0  0  0  0  0  0
   57.0720   30.6890  -11.3610 H   0  0  0  0  0  0  0  0  0  0  0  0
   58.4610   28.7910  -16.9600 H   0  0  0  0  0  0  0  0  0  0  0  0
   57.8170   24.1950  -16.6710 H   0  0  0  0  0  0  0  0  0  0  0  0
   58.8100   22.2380  -10.3240 H   0  0  0  0  0  0  0  0  0  0  0  0
   55.9600   20.3480  -10.4900 H   0  0  0  0  0  0  0  0  0  0  0  0
  1  6  2  0  0  0  0
  1  2  1  0  0  0  0
  2  3  2  0  0  0  0
  3  4  1  0  0  0  0
  3 22  1  0  0  0  0
  4 21  1  0  0  0  0
  5 25  1  0  0  0  0
  5  4  2  0  0  0  0
  6  5  1  0  0  0  0
  7  6  1  0  0  0  0
  7 17  1  0  0  0  0
  8  7  2  0  0  0  0
  9  8  1  0  0  0  0
  9 11  1  0  0  0  0
 10  9  2  0  0  0  0
 11 16  1  0  0  0  0
 12 11  2  0  0  0  0
 12 13  1  0  0  0  0
 13 14  2  0  0  0  0
 14 15  1  0  0  0  0
 14 18  1  0  0  0  0
 15 27  1  0  0  0  0
 16 17  1  0  0  0  0
 16 15  2  0  0  0  0
 18 28  1  0  0  0  0
 19 12  1  0  0  0  0
 20  8  1  0  0  0  0
 21 31  1  0  0  0  0
 22 32  1  0  0  0  0
 23  1  1  0  0  0  0
 24  2  1  0  0  0  0
 26 13  1  0  0  0  0
 29 19  1  0  0  0  0
 30 20  1  0  0  0  0
M  END
>  <Pose>
1

>  <Score>
-4.34

$$$$
