
 OpenBabel10152114563D

 32 34  0  0  0  0  0  0  0  0999 V2000
   75.2940   36.9490    4.5460 C   0  0  0  0  0  0  0  0  0  0  0  0
   75.2740   36.7110    5.9240 C   0  0  0  0  0  0  0  0  0  0  0  0
   74.0530   36.6610    6.5820 C   0  0  0  0  0  0  0  0  0  0  0  0
   72.8660   36.8560    5.8790 C   0  0  0  0  0  0  0  0  0  0  0  0
   72.8740   37.0930    4.5110 C   0  0  0  0  0  0  0  0  0  0  0  0
   74.0960   37.1280    3.8280 C   0  0  0  0  0  0  0  0  0  0  0  0
   74.1240   37.3400    2.3710 C   0  0  0  0  0  0  0  0  0  0  0  0
   73.9220   38.5530    1.8160 C   0  0  0  0  0  0  0  0  0  0  0  0
   73.9200   38.6450    0.3310 C   0  0  0  0  0  0  0  0  0  0  0  0
   73.7270   39.6970   -0.2740 O   0  0  0  0  0  0  0  0  0  0  0  0
   74.1590   37.4070   -0.4190 C   0  0  0  0  0  0  0  0  0  0  0  0
   74.1680   37.3890   -1.8190 C   0  0  0  0  0  0  0  0  0  0  0  0
   74.4010   36.2000   -2.5060 C   0  0  0  0  0  0  0  0  0  0  0  0
   74.6280   35.0330   -1.7830 C   0  0  0  0  0  0  0  0  0  0  0  0
   74.6210   35.0390   -0.3900 C   0  0  0  0  0  0  0  0  0  0  0  0
   74.3820   36.2320    0.2930 C   0  0  0  0  0  0  0  0  0  0  0  0
   74.3740   36.1770    1.6620 O   0  0  0  0  0  0  0  0  0  0  0  0
   74.8610   33.8450   -2.4110 O   0  0  0  0  0  0  0  0  0  0  0  0
   73.9520   38.5060   -2.5810 O   0  0  0  0  0  0  0  0  0  0  0  0
   73.7160   39.7220    2.5280 O   0  0  0  0  0  0  0  0  0  0  0  0
   71.6700   36.8080    6.5370 O   0  0  0  0  0  0  0  0  0  0  0  0
   73.9640   36.4200    7.9240 O   0  0  0  0  0  0  0  0  0  0  0  0
   76.2530   36.9950    4.0310 H   0  0  0  0  0  0  0  0  0  0  0  0
   76.2110   36.5710    6.4540 H   0  0  0  0  0  0  0  0  0  0  0  0
   71.9330   37.2400    3.9880 H   0  0  0  0  0  0  0  0  0  0  0  0
   74.4020   36.2060   -3.5920 H   0  0  0  0  0  0  0  0  0  0  0  0
   74.7990   34.1170    0.1570 H   0  0  0  0  0  0  0  0  0  0  0  0
   74.0080   33.4200   -2.6050 H   0  0  0  0  0  0  0  0  0  0  0  0
   74.1630   38.2830   -3.5170 H   0  0  0  0  0  0  0  0  0  0  0  0
   72.7660   39.8290    2.6990 H   0  0  0  0  0  0  0  0  0  0  0  0
   71.8250   36.2030    7.2900 H   0  0  0  0  0  0  0  0  0  0  0  0
   73.0250   36.4400    8.1790 H   0  0  0  0  0  0  0  0  0  0  0  0
  1  2  1  0  0  0  0
  2 24  1  0  0  0  0
  2  3  2  0  0  0  0
  3 22  1  0  0  0  0
  4 21  1  0  0  0  0
  4  3  1  0  0  0  0
  5  4  2  0  0  0  0
  6  5  1  0  0  0  0
  6  1  2  0  0  0  0
  7  6  1  0  0  0  0
  8  7  2  0  0  0  0
  8 20  1  0  0  0  0
  9  8  1  0  0  0  0
 10  9  2  0  0  0  0
 11 16  1  0  0  0  0
 11  9  1  0  0  0  0
 12 11  2  0  0  0  0
 13 12  1  0  0  0  0
 13 14  2  0  0  0  0
 14 15  1  0  0  0  0
 15 27  1  0  0  0  0
 15 16  2  0  0  0  0
 16 17  1  0  0  0  0
 17  7  1  0  0  0  0
 18 14  1  0  0  0  0
 19 12  1  0  0  0  0
 20 30  1  0  0  0  0
 21 31  1  0  0  0  0
 22 32  1  0  0  0  0
 23  1  1  0  0  0  0
 25  5  1  0  0  0  0
 26 13  1  0  0  0  0
 28 18  1  0  0  0  0
 29 19  1  0  0  0  0
M  END
>  <Pose>
1

>  <Score>
-5.76

$$$$

 OpenBabel10152114563D

 32 34  0  0  0  0  0  0  0  0999 V2000
   75.8470   33.3180   -1.9980 C   0  0  0  0  0  0  0  0  0  0  0  0
   76.0730   32.1280   -2.6960 C   0  0  0  0  0  0  0  0  0  0  0  0
   75.2490   31.8060   -3.7660 C   0  0  0  0  0  0  0  0  0  0  0  0
   74.2060   32.6540   -4.1310 C   0  0  0  0  0  0  0  0  0  0  0  0
   73.9720   33.8390   -3.4440 C   0  0  0  0  0  0  0  0  0  0  0  0
   74.8050   34.1870   -2.3740 C   0  0  0  0  0  0  0  0  0  0  0  0
   74.5970   35.4570   -1.6580 C   0  0  0  0  0  0  0  0  0  0  0  0
   74.5060   36.6390   -2.3000 C   0  0  0  0  0  0  0  0  0  0  0  0
   74.3480   37.8680   -1.4750 C   0  0  0  0  0  0  0  0  0  0  0  0
   74.2740   38.9950   -1.9590 O   0  0  0  0  0  0  0  0  0  0  0  0
   74.2840   37.6940   -0.0190 C   0  0  0  0  0  0  0  0  0  0  0  0
   74.1460   38.7890    0.8430 C   0  0  0  0  0  0  0  0  0  0  0  0
   74.0840   38.5960    2.2210 C   0  0  0  0  0  0  0  0  0  0  0  0
   74.1600   37.3020    2.7280 C   0  0  0  0  0  0  0  0  0  0  0  0
   74.2980   36.2060    1.8800 C   0  0  0  0  0  0  0  0  0  0  0  0
   74.3630   36.4060    0.5010 C   0  0  0  0  0  0  0  0  0  0  0  0
   74.5120   35.2930   -0.2850 O   0  0  0  0  0  0  0  0  0  0  0  0
   74.1030   37.0630    4.0690 O   0  0  0  0  0  0  0  0  0  0  0  0
   74.0670   40.0820    0.4000 O   0  0  0  0  0  0  0  0  0  0  0  0
   74.5460   36.7960   -3.6750 O   0  0  0  0  0  0  0  0  0  0  0  0
   73.3990   32.3260   -5.1830 O   0  0  0  0  0  0  0  0  0  0  0  0
   75.4250   30.6650   -4.4970 O   0  0  0  0  0  0  0  0  0  0  0  0
   76.4890   33.5670   -1.1550 H   0  0  0  0  0  0  0  0  0  0  0  0
   76.8860   31.4770   -2.3910 H   0  0  0  0  0  0  0  0  0  0  0  0
   73.1510   34.4810   -3.7510 H   0  0  0  0  0  0  0  0  0  0  0  0
   73.9790   39.4580    2.8730 H   0  0  0  0  0  0  0  0  0  0  0  0
   74.3560   35.2040    2.2960 H   0  0  0  0  0  0  0  0  0  0  0  0
   73.5040   36.3150    4.2290 H   0  0  0  0  0  0  0  0  0  0  0  0
   73.4090   40.5570    0.9600 H   0  0  0  0  0  0  0  0  0  0  0  0
   74.0880   37.6190   -3.9160 H   0  0  0  0  0  0  0  0  0  0  0  0
   72.4890   32.4320   -4.8410 H   0  0  0  0  0  0  0  0  0  0  0  0
   76.3610   30.4040   -4.4390 H   0  0  0  0  0  0  0  0  0  0  0  0
  1 23  1  0  0  0  0
  2 24  1  0  0  0  0
  2  1  2  0  0  0  0
  3  2  1  0  0  0  0
  4  3  2  0  0  0  0
  4  5  1  0  0  0  0
  5  6  2  0  0  0  0
  6  1  1  0  0  0  0
  6  7  1  0  0  0  0
  7 17  1  0  0  0  0
  8  7  2  0  0  0  0
  8  9  1  0  0  0  0
  9 11  1  0  0  0  0
 10  9  2  0  0  0  0
 11 16  2  0  0  0  0
 11 12  1  0  0  0  0
 12 13  2  0  0  0  0
 13 14  1  0  0  0  0
 13 26  1  0  0  0  0
 14 18  1  0  0  0  0
 15 27  1  0  0  0  0
 15 14  2  0  0  0  0
 16 15  1  0  0  0  0
 17 16  1  0  0  0  0
 18 28  1  0  0  0  0
 19 12  1  0  0  0  0
 19 29  1  0  0  0  0
 20  8  1  0  0  0  0
 21 31  1  0  0  0  0
 21  4  1  0  0  0  0
 22 32  1  0  0  0  0
 22  3  1  0  0  0  0
 25  5  1  0  0  0  0
 30 20  1  0  0  0  0
M  END
>  <Pose>
1

>  <Score>
-5.64

$$$$

 OpenBabel10152114563D

 32 34  0  0  0  0  0  0  0  0999 V2000
   74.7590   38.3080    5.2910 C   0  0  0  0  0  0  0  0  0  0  0  0
   74.5060   38.7770    6.5830 C   0  0  0  0  0  0  0  0  0  0  0  0
   73.3280   38.4040    7.2180 C   0  0  0  0  0  0  0  0  0  0  0  0
   72.4090   37.5820    6.5690 C   0  0  0  0  0  0  0  0  0  0  0  0
   72.6510   37.1110    5.2850 C   0  0  0  0  0  0  0  0  0  0  0  0
   73.8420   37.4620    4.6380 C   0  0  0  0  0  0  0  0  0  0  0  0
   74.1340   36.9420    3.2920 C   0  0  0  0  0  0  0  0  0  0  0  0
   74.5670   35.6820    3.0850 C   0  0  0  0  0  0  0  0  0  0  0  0
   74.8820   35.2750    1.6890 C   0  0  0  0  0  0  0  0  0  0  0  0
   75.3000   34.1580    1.3950 O   0  0  0  0  0  0  0  0  0  0  0  0
   74.6780   36.2770    0.6370 C   0  0  0  0  0  0  0  0  0  0  0  0
   74.9540   35.9950   -0.7070 C   0  0  0  0  0  0  0  0  0  0  0  0
   74.7480   36.9620   -1.6870 C   0  0  0  0  0  0  0  0  0  0  0  0
   74.2610   38.2120   -1.3130 C   0  0  0  0  0  0  0  0  0  0  0  0
   73.9840   38.5040    0.0200 C   0  0  0  0  0  0  0  0  0  0  0  0
   74.1970   37.5320    0.9980 C   0  0  0  0  0  0  0  0  0  0  0  0
   73.9180   37.8790    2.2940 O   0  0  0  0  0  0  0  0  0  0  0  0
   74.0430   39.1910   -2.2360 O   0  0  0  0  0  0  0  0  0  0  0  0
   75.4330   34.7840   -1.1310 O   0  0  0  0  0  0  0  0  0  0  0  0
   74.7390   34.7340    4.0790 O   0  0  0  0  0  0  0  0  0  0  0  0
   71.2530   37.2240    7.2010 O   0  0  0  0  0  0  0  0  0  0  0  0
   73.0270   38.8180    8.4850 O   0  0  0  0  0  0  0  0  0  0  0  0
   75.6790   38.6070    4.7910 H   0  0  0  0  0  0  0  0  0  0  0  0
   75.2300   39.4240    7.0680 H   0  0  0  0  0  0  0  0  0  0  0  0
   71.9170   36.4700    4.8040 H   0  0  0  0  0  0  0  0  0  0  0  0
   74.9700   36.7250   -2.7220 H   0  0  0  0  0  0  0  0  0  0  0  0
   73.6050   39.4860    0.2920 H   0  0  0  0  0  0  0  0  0  0  0  0
   74.1300   38.8080   -3.1260 H   0  0  0  0  0  0  0  0  0  0  0  0
   74.7150   34.1170   -1.0260 H   0  0  0  0  0  0  0  0  0  0  0  0
   73.8960   34.6010    4.5430 H   0  0  0  0  0  0  0  0  0  0  0  0
   71.5460   36.7420    8.0010 H   0  0  0  0  0  0  0  0  0  0  0  0
   72.4860   38.1320    8.9120 H   0  0  0  0  0  0  0  0  0  0  0  0
  1  2  1  0  0  0  0
  2 24  1  0  0  0  0
  2  3  2  0  0  0  0
  3 22  1  0  0  0  0
  4 21  1  0  0  0  0
  4  3  1  0  0  0  0
  5  4  2  0  0  0  0
  6  5  1  0  0  0  0
  6  1  2  0  0  0  0
  7  6  1  0  0  0  0
  8  7  2  0  0  0  0
  8 20  1  0  0  0  0
  9  8  1  0  0  0  0
 10  9  2  0  0  0  0
 11 16  1  0  0  0  0
 11  9  1  0  0  0  0
 12 11  2  0  0  0  0
 13 14  2  0  0  0  0
 13 12  1  0  0  0  0
 14 15  1  0  0  0  0
 15 27  1  0  0  0  0
 15 16  2  0  0  0  0
 16 17  1  0  0  0  0
 17  7  1  0  0  0  0
 18 14  1  0  0  0  0
 19 29  1  0  0  0  0
 19 12  1  0  0  0  0
 20 30  1  0  0  0  0
 21 31  1  0  0  0  0
 22 32  1  0  0  0  0
 23  1  1  0  0  0  0
 25  5  1  0  0  0  0
 26 13  1  0  0  0  0
 28 18  1  0  0  0  0
M  END
>  <Pose>
1

>  <Score>
-5.46

$$$$

 OpenBabel10152114563D

 32 34  0  0  0  0  0  0  0  0999 V2000
   76.0980   34.5710    3.6090 C   0  0  0  0  0  0  0  0  0  0  0  0
   76.1190   34.6890    5.0030 C   0  0  0  0  0  0  0  0  0  0  0  0
   75.2750   33.8860    5.7590 C   0  0  0  0  0  0  0  0  0  0  0  0
   74.4140   32.9860    5.1360 C   0  0  0  0  0  0  0  0  0  0  0  0
   74.3860   32.8620    3.7530 C   0  0  0  0  0  0  0  0  0  0  0  0
   75.2430   33.6500    2.9760 C   0  0  0  0  0  0  0  0  0  0  0  0
   75.2550   33.5060    1.5100 C   0  0  0  0  0  0  0  0  0  0  0  0
   75.5680   32.3430    0.9040 C   0  0  0  0  0  0  0  0  0  0  0  0
   75.6010   32.3220   -0.5840 C   0  0  0  0  0  0  0  0  0  0  0  0
   75.8910   31.3200   -1.2340 O   0  0  0  0  0  0  0  0  0  0  0  0
   75.2680   33.5710   -1.2800 C   0  0  0  0  0  0  0  0  0  0  0  0
   75.2790   33.6550   -2.6770 C   0  0  0  0  0  0  0  0  0  0  0  0
   74.9560   34.8520   -3.3130 C   0  0  0  0  0  0  0  0  0  0  0  0
   74.6200   35.9590   -2.5400 C   0  0  0  0  0  0  0  0  0  0  0  0
   74.6060   35.8880   -1.1500 C   0  0  0  0  0  0  0  0  0  0  0  0
   74.9350   34.6870   -0.5190 C   0  0  0  0  0  0  0  0  0  0  0  0
   74.9170   34.6770    0.8520 O   0  0  0  0  0  0  0  0  0  0  0  0
   74.2960   37.1520   -3.1170 O   0  0  0  0  0  0  0  0  0  0  0  0
   75.6010   32.5990   -3.4860 O   0  0  0  0  0  0  0  0  0  0  0  0
   75.8620   31.1620    1.5640 O   0  0  0  0  0  0  0  0  0  0  0  0
   73.5870   32.2040    5.8900 O   0  0  0  0  0  0  0  0  0  0  0  0
   75.2560   33.9430    7.1250 O   0  0  0  0  0  0  0  0  0  0  0  0
   76.7550   35.2060    3.0160 H   0  0  0  0  0  0  0  0  0  0  0  0
   76.7900   35.4030    5.4680 H   0  0  0  0  0  0  0  0  0  0  0  0
   73.7050   32.1500    3.2940 H   0  0  0  0  0  0  0  0  0  0  0  0
   74.9720   34.8980   -4.3970 H   0  0  0  0  0  0  0  0  0  0  0  0
   74.3420   36.7640   -0.5640 H   0  0  0  0  0  0  0  0  0  0  0  0
   74.1320   37.0080   -4.0640 H   0  0  0  0  0  0  0  0  0  0  0  0
   75.4890   32.8850   -4.4230 H   0  0  0  0  0  0  0  0  0  0  0  0
   76.4730   31.3490    2.2960 H   0  0  0  0  0  0  0  0  0  0  0  0
   72.8940   32.8140    6.2140 H   0  0  0  0  0  0  0  0  0  0  0  0
   74.3570   34.1830    7.4090 H   0  0  0  0  0  0  0  0  0  0  0  0
  1  2  1  0  0  0  0
  2 24  1  0  0  0  0
  2  3  2  0  0  0  0
  3 22  1  0  0  0  0
  4  3  1  0  0  0  0
  4 21  1  0  0  0  0
  5  4  2  0  0  0  0
  6  1  2  0  0  0  0
  6  5  1  0  0  0  0
  7  6  1  0  0  0  0
  8  7  2  0  0  0  0
  8 20  1  0  0  0  0
  9  8  1  0  0  0  0
 10  9  2  0  0  0  0
 11  9  1  0  0  0  0
 11 16  1  0  0  0  0
 12 11  2  0  0  0  0
 13 12  1  0  0  0  0
 13 14  2  0  0  0  0
 14 15  1  0  0  0  0
 15 27  1  0  0  0  0
 15 16  2  0  0  0  0
 16 17  1  0  0  0  0
 17  7  1  0  0  0  0
 18 14  1  0  0  0  0
 19 12  1  0  0  0  0
 20 30  1  0  0  0  0
 21 31  1  0  0  0  0
 22 32  1  0  0  0  0
 23  1  1  0  0  0  0
 25  5  1  0  0  0  0
 26 13  1  0  0  0  0
 28 18  1  0  0  0  0
 29 19  1  0  0  0  0
M  END
>  <Pose>
1

>  <Score>
-5.41

$$$$

 OpenBabel10152114563D

 32 34  0  0  0  0  0  0  0  0999 V2000
   75.1290   38.0430    5.0120 C   0  0  0  0  0  0  0  0  0  0  0  0
   74.9440   38.3150    6.3710 C   0  0  0  0  0  0  0  0  0  0  0  0
   73.7180   38.0270    6.9560 C   0  0  0  0  0  0  0  0  0  0  0  0
   72.6850   37.4860    6.1940 C   0  0  0  0  0  0  0  0  0  0  0  0
   72.8580   37.2130    4.8430 C   0  0  0  0  0  0  0  0  0  0  0  0
   74.0940   37.4790    4.2420 C   0  0  0  0  0  0  0  0  0  0  0  0
   74.3100   37.1610    2.8200 C   0  0  0  0  0  0  0  0  0  0  0  0
   74.0960   38.0630    1.8410 C   0  0  0  0  0  0  0  0  0  0  0  0
   74.2950   37.6210    0.4340 C   0  0  0  0  0  0  0  0  0  0  0  0
   74.1100   38.3580   -0.5320 O   0  0  0  0  0  0  0  0  0  0  0  0
   74.7310   36.2360    0.2210 C   0  0  0  0  0  0  0  0  0  0  0  0
   74.9370   35.7230   -1.0650 C   0  0  0  0  0  0  0  0  0  0  0  0
   75.3540   34.4050   -1.2390 C   0  0  0  0  0  0  0  0  0  0  0  0
   75.5640   33.6080   -0.1180 C   0  0  0  0  0  0  0  0  0  0  0  0
   75.3620   34.1080    1.1660 C   0  0  0  0  0  0  0  0  0  0  0  0
   74.9400   35.4270    1.3340 C   0  0  0  0  0  0  0  0  0  0  0  0
   74.7450   35.8620    2.6190 O   0  0  0  0  0  0  0  0  0  0  0  0
   75.9730   32.3130   -0.2370 O   0  0  0  0  0  0  0  0  0  0  0  0
   74.7450   36.4610   -2.2030 O   0  0  0  0  0  0  0  0  0  0  0  0
   73.7050   39.3750    2.0470 O   0  0  0  0  0  0  0  0  0  0  0  0
   71.4820   37.2100    6.7780 O   0  0  0  0  0  0  0  0  0  0  0  0
   73.4770   38.2570    8.2810 O   0  0  0  0  0  0  0  0  0  0  0  0
   76.0890   38.2760    4.5520 H   0  0  0  0  0  0  0  0  0  0  0  0
   75.7590   38.7450    6.9450 H   0  0  0  0  0  0  0  0  0  0  0  0
   72.0350   36.7890    4.2740 H   0  0  0  0  0  0  0  0  0  0  0  0
   75.5060   34.0250   -2.2440 H   0  0  0  0  0  0  0  0  0  0  0  0
   75.5310   33.4690    2.0290 H   0  0  0  0  0  0  0  0  0  0  0  0
   76.7690   32.1840    0.3060 H   0  0  0  0  0  0  0  0  0  0  0  0
   75.5790   36.4360   -2.7270 H   0  0  0  0  0  0  0  0  0  0  0  0
   72.7360   39.4120    2.1170 H   0  0  0  0  0  0  0  0  0  0  0  0
   71.7020   36.9820    7.7040 H   0  0  0  0  0  0  0  0  0  0  0  0
   72.8740   37.5670    8.6080 H   0  0  0  0  0  0  0  0  0  0  0  0
  1  2  1  0  0  0  0
  2 24  1  0  0  0  0
  2  3  2  0  0  0  0
  3 22  1  0  0  0  0
  4 21  1  0  0  0  0
  4  3  1  0  0  0  0
  5  4  2  0  0  0  0
  6  5  1  0  0  0  0
  6  1  2  0  0  0  0
  7  6  1  0  0  0  0
  8 20  1  0  0  0  0
  8  7  2  0  0  0  0
  9  8  1  0  0  0  0
 10  9  2  0  0  0  0
 11  9  1  0  0  0  0
 11 16  1  0  0  0  0
 12 11  2  0  0  0  0
 13 12  1  0  0  0  0
 13 14  2  0  0  0  0
 14 15  1  0  0  0  0
 15 16  2  0  0  0  0
 15 27  1  0  0  0  0
 16 17  1  0  0  0  0
 17  7  1  0  0  0  0
 18 14  1  0  0  0  0
 18 28  1  0  0  0  0
 19 12  1  0  0  0  0
 20 30  1  0  0  0  0
 21 31  1  0  0  0  0
 22 32  1  0  0  0  0
 23  1  1  0  0  0  0
 25  5  1  0  0  0  0
 26 13  1  0  0  0  0
 29 19  1  0  0  0  0
M  END
>  <Pose>
1

>  <Score>
-5.34

$$$$
