
 OpenBabel10152114563D

 32 34  0  0  0  0  0  0  0  0999 V2000
   50.2150   27.0580  -11.1020 C   0  0  0  0  0  0  0  0  0  0  0  0
   49.5100   28.1550  -10.5970 C   0  0  0  0  0  0  0  0  0  0  0  0
   48.8200   28.0200   -9.4000 C   0  0  0  0  0  0  0  0  0  0  0  0
   48.8230   26.8050   -8.7190 C   0  0  0  0  0  0  0  0  0  0  0  0
   49.5200   25.7090   -9.2120 C   0  0  0  0  0  0  0  0  0  0  0  0
   50.2360   25.8330  -10.4090 C   0  0  0  0  0  0  0  0  0  0  0  0
   51.0130   24.6950  -10.9290 C   0  0  0  0  0  0  0  0  0  0  0  0
   52.1380   24.2570  -10.3280 C   0  0  0  0  0  0  0  0  0  0  0  0
   52.8730   23.1320  -10.9670 C   0  0  0  0  0  0  0  0  0  0  0  0
   53.9170   22.6690  -10.5120 O   0  0  0  0  0  0  0  0  0  0  0  0
   52.3030   22.5710  -12.1970 C   0  0  0  0  0  0  0  0  0  0  0  0
   52.9250   21.5170  -12.8780 C   0  0  0  0  0  0  0  0  0  0  0  0
   52.3610   21.0000  -14.0420 C   0  0  0  0  0  0  0  0  0  0  0  0
   51.1710   21.5440  -14.5170 C   0  0  0  0  0  0  0  0  0  0  0  0
   50.5440   22.5920  -13.8490 C   0  0  0  0  0  0  0  0  0  0  0  0
   51.1160   23.1080  -12.6860 C   0  0  0  0  0  0  0  0  0  0  0  0
   50.4630   24.1480  -12.0760 O   0  0  0  0  0  0  0  0  0  0  0  0
   50.5810   21.0710  -15.6510 O   0  0  0  0  0  0  0  0  0  0  0  0
   54.0950   20.9440  -12.4570 O   0  0  0  0  0  0  0  0  0  0  0  0
   52.6610   24.7760   -9.1560 O   0  0  0  0  0  0  0  0  0  0  0  0
   48.1380   26.6820   -7.5440 O   0  0  0  0  0  0  0  0  0  0  0  0
   48.1220   29.0560   -8.8460 O   0  0  0  0  0  0  0  0  0  0  0  0
   50.7510   27.1630  -12.0450 H   0  0  0  0  0  0  0  0  0  0  0  0
   49.5130   29.0910  -11.1470 H   0  0  0  0  0  0  0  0  0  0  0  0
   49.5060   24.7740   -8.6600 H   0  0  0  0  0  0  0  0  0  0  0  0
   52.8590   20.1840  -14.5560 H   0  0  0  0  0  0  0  0  0  0  0  0
   49.6160   23.0040  -14.2360 H   0  0  0  0  0  0  0  0  0  0  0  0
   49.6170   21.0540  -15.5190 H   0  0  0  0  0  0  0  0  0  0  0  0
   54.1640   20.0510  -12.8680 H   0  0  0  0  0  0  0  0  0  0  0  0
   52.7710   25.7360   -9.2540 H   0  0  0  0  0  0  0  0  0  0  0  0
   47.3070   26.2260   -7.7870 H   0  0  0  0  0  0  0  0  0  0  0  0
   47.9380   28.8410   -7.9150 H   0  0  0  0  0  0  0  0  0  0  0  0
  1  2  2  0  0  0  0
  1  6  1  0  0  0  0
  2  3  1  0  0  0  0
  3 22  1  0  0  0  0
  3  4  2  0  0  0  0
  4 21  1  0  0  0  0
  5  4  1  0  0  0  0
  5 25  1  0  0  0  0
  6  5  2  0  0  0  0
  7  6  1  0  0  0  0
  7  8  2  0  0  0  0
  8 20  1  0  0  0  0
  9 10  2  0  0  0  0
  9  8  1  0  0  0  0
 11  9  1  0  0  0  0
 12 19  1  0  0  0  0
 12 11  2  0  0  0  0
 13 12  1  0  0  0  0
 14 13  2  0  0  0  0
 14 15  1  0  0  0  0
 15 16  2  0  0  0  0
 16 11  1  0  0  0  0
 16 17  1  0  0  0  0
 17  7  1  0  0  0  0
 18 28  1  0  0  0  0
 18 14  1  0  0  0  0
 22 32  1  0  0  0  0
 23  1  1  0  0  0  0
 24  2  1  0  0  0  0
 26 13  1  0  0  0  0
 27 15  1  0  0  0  0
 29 19  1  0  0  0  0
 30 20  1  0  0  0  0
 31 21  1  0  0  0  0
M  END
>  <Pose>
3

>  <Score>
-4.04

$$$$

 OpenBabel10152114563D

 32 34  0  0  0  0  0  0  0  0999 V2000
   48.6930   25.3210  -10.4280 C   0  0  0  0  0  0  0  0  0  0  0  0
   47.8820   26.1070   -9.6030 C   0  0  0  0  0  0  0  0  0  0  0  0
   48.4540   27.1610   -8.9030 C   0  0  0  0  0  0  0  0  0  0  0  0
   49.8170   27.4230   -9.0150 C   0  0  0  0  0  0  0  0  0  0  0  0
   50.6310   26.6490   -9.8320 C   0  0  0  0  0  0  0  0  0  0  0  0
   50.0680   25.5930  -10.5590 C   0  0  0  0  0  0  0  0  0  0  0  0
   50.9060   24.7840  -11.4590 C   0  0  0  0  0  0  0  0  0  0  0  0
   50.7130   24.7600  -12.7940 C   0  0  0  0  0  0  0  0  0  0  0  0
   51.5850   23.8670  -13.6050 C   0  0  0  0  0  0  0  0  0  0  0  0
   51.4800   23.7570  -14.8250 O   0  0  0  0  0  0  0  0  0  0  0  0
   52.6050   23.0940  -12.8890 C   0  0  0  0  0  0  0  0  0  0  0  0
   53.4680   22.2200  -13.5610 C   0  0  0  0  0  0  0  0  0  0  0  0
   54.4300   21.4990  -12.8580 C   0  0  0  0  0  0  0  0  0  0  0  0
   54.5240   21.6630  -11.4790 C   0  0  0  0  0  0  0  0  0  0  0  0
   53.6710   22.5290  -10.7990 C   0  0  0  0  0  0  0  0  0  0  0  0
   52.7060   23.2440  -11.5090 C   0  0  0  0  0  0  0  0  0  0  0  0
   51.8860   24.0720  -10.7870 O   0  0  0  0  0  0  0  0  0  0  0  0
   55.4500   20.9810  -10.7470 O   0  0  0  0  0  0  0  0  0  0  0  0
   53.4210   22.0200  -14.9150 O   0  0  0  0  0  0  0  0  0  0  0  0
   49.7630   25.5060  -13.4680 O   0  0  0  0  0  0  0  0  0  0  0  0
   50.3690   28.4610   -8.3190 O   0  0  0  0  0  0  0  0  0  0  0  0
   47.7150   27.9740   -8.0900 O   0  0  0  0  0  0  0  0  0  0  0  0
   48.2450   24.4900  -10.9710 H   0  0  0  0  0  0  0  0  0  0  0  0
   46.8240   25.8800   -9.5220 H   0  0  0  0  0  0  0  0  0  0  0  0
   51.6910   26.8770   -9.9010 H   0  0  0  0  0  0  0  0  0  0  0  0
   55.0880   20.8260  -13.3970 H   0  0  0  0  0  0  0  0  0  0  0  0
   53.7600   22.6420   -9.7220 H   0  0  0  0  0  0  0  0  0  0  0  0
   55.0690   20.7690   -9.8780 H   0  0  0  0  0  0  0  0  0  0  0  0
   52.5570   21.5960  -15.1320 H   0  0  0  0  0  0  0  0  0  0  0  0
   48.8800   25.1510  -13.2720 H   0  0  0  0  0  0  0  0  0  0  0  0
   51.3230   28.2470   -8.2690 H   0  0  0  0  0  0  0  0  0  0  0  0
   47.0210   27.4380   -7.6680 H   0  0  0  0  0  0  0  0  0  0  0  0
  1  2  1  0  0  0  0
  2 24  1  0  0  0  0
  2  3  2  0  0  0  0
  3 22  1  0  0  0  0
  4  3  1  0  0  0  0
  4 21  1  0  0  0  0
  5  4  2  0  0  0  0
  6  1  2  0  0  0  0
  6  5  1  0  0  0  0
  7 17  1  0  0  0  0
  7  6  1  0  0  0  0
  8  7  2  0  0  0  0
  9 11  1  0  0  0  0
  9  8  1  0  0  0  0
 10  9  2  0  0  0  0
 11 16  1  0  0  0  0
 12 11  2  0  0  0  0
 12 13  1  0  0  0  0
 13 14  2  0  0  0  0
 14 15  1  0  0  0  0
 14 18  1  0  0  0  0
 15 27  1  0  0  0  0
 16 15  2  0  0  0  0
 16 17  1  0  0  0  0
 18 28  1  0  0  0  0
 19 12  1  0  0  0  0
 20 30  1  0  0  0  0
 20  8  1  0  0  0  0
 21 31  1  0  0  0  0
 22 32  1  0  0  0  0
 23  1  1  0  0  0  0
 25  5  1  0  0  0  0
 26 13  1  0  0  0  0
 29 19  1  0  0  0  0
M  END
>  <Pose>
1

>  <Score>
-3.82

$$$$

 OpenBabel10152114563D

 32 34  0  0  0  0  0  0  0  0999 V2000
   48.8630   27.2000  -11.6860 C   0  0  0  0  0  0  0  0  0  0  0  0
   47.6840   27.9520  -11.6890 C   0  0  0  0  0  0  0  0  0  0  0  0
   46.5040   27.3570  -11.2640 C   0  0  0  0  0  0  0  0  0  0  0  0
   46.4960   26.0270  -10.8500 C   0  0  0  0  0  0  0  0  0  0  0  0
   47.6610   25.2720  -10.8430 C   0  0  0  0  0  0  0  0  0  0  0  0
   48.8630   25.8610  -11.2510 C   0  0  0  0  0  0  0  0  0  0  0  0
   50.1160   25.0880  -11.2150 C   0  0  0  0  0  0  0  0  0  0  0  0
   50.9180   25.0670  -10.1310 C   0  0  0  0  0  0  0  0  0  0  0  0
   52.1870   24.2950  -10.2200 C   0  0  0  0  0  0  0  0  0  0  0  0
   52.9950   24.2260   -9.2970 O   0  0  0  0  0  0  0  0  0  0  0  0
   52.4600   23.5970  -11.4810 C   0  0  0  0  0  0  0  0  0  0  0  0
   53.6310   22.8520  -11.6680 C   0  0  0  0  0  0  0  0  0  0  0  0
   53.8640   22.1960  -12.8740 C   0  0  0  0  0  0  0  0  0  0  0  0
   52.9170   22.2900  -13.8890 C   0  0  0  0  0  0  0  0  0  0  0  0
   51.7500   23.0280  -13.7160 C   0  0  0  0  0  0  0  0  0  0  0  0
   51.5240   23.6860  -12.5070 C   0  0  0  0  0  0  0  0  0  0  0  0
   50.3640   24.4090  -12.3970 O   0  0  0  0  0  0  0  0  0  0  0  0
   53.1010   21.6650  -15.0870 O   0  0  0  0  0  0  0  0  0  0  0  0
   54.5960   22.7260  -10.7040 O   0  0  0  0  0  0  0  0  0  0  0  0
   50.6460   25.7100   -8.9360 O   0  0  0  0  0  0  0  0  0  0  0  0
   45.3290   25.4510  -10.4360 O   0  0  0  0  0  0  0  0  0  0  0  0
   45.3210   28.0400  -11.2310 O   0  0  0  0  0  0  0  0  0  0  0  0
   49.7870   27.6650  -12.0270 H   0  0  0  0  0  0  0  0  0  0  0  0
   47.7100   28.9840  -12.0240 H   0  0  0  0  0  0  0  0  0  0  0  0
   47.6250   24.2370  -10.5140 H   0  0  0  0  0  0  0  0  0  0  0  0
   54.7790   21.6250  -12.9990 H   0  0  0  0  0  0  0  0  0  0  0  0
   51.0230   23.0900  -14.5220 H   0  0  0  0  0  0  0  0  0  0  0  0
   52.2360   21.3750  -15.4250 H   0  0  0  0  0  0  0  0  0  0  0  0
   54.2450   23.1110   -9.8680 H   0  0  0  0  0  0  0  0  0  0  0  0
   51.4660   25.7820   -8.4180 H   0  0  0  0  0  0  0  0  0  0  0  0
   45.3610   25.4970   -9.4600 H   0  0  0  0  0  0  0  0  0  0  0  0
   44.8620   27.8200  -10.4020 H   0  0  0  0  0  0  0  0  0  0  0  0
  1  6  1  0  0  0  0
  2  1  2  0  0  0  0
  2  3  1  0  0  0  0
  3 22  1  0  0  0  0
  3  4  2  0  0  0  0
  4  5  1  0  0  0  0
  4 21  1  0  0  0  0
  5 25  1  0  0  0  0
  6  7  1  0  0  0  0
  6  5  2  0  0  0  0
  7  8  2  0  0  0  0
  8 20  1  0  0  0  0
  9  8  1  0  0  0  0
  9 10  2  0  0  0  0
 11  9  1  0  0  0  0
 12 11  1  0  0  0  0
 12 19  1  0  0  0  0
 13 12  2  0  0  0  0
 14 15  2  0  0  0  0
 14 13  1  0  0  0  0
 15 16  1  0  0  0  0
 16 17  1  0  0  0  0
 16 11  2  0  0  0  0
 17  7  1  0  0  0  0
 18 14  1  0  0  0  0
 19 29  1  0  0  0  0
 20 30  1  0  0  0  0
 21 31  1  0  0  0  0
 22 32  1  0  0  0  0
 23  1  1  0  0  0  0
 24  2  1  0  0  0  0
 26 13  1  0  0  0  0
 27 15  1  0  0  0  0
 28 18  1  0  0  0  0
M  END
>  <Pose>
1

>  <Score>
-3.71

$$$$
