
 OpenBabel10152114563D

 32 34  0  0  0  0  0  0  0  0999 V2000
   70.5470   46.1180   -6.4120 C   0  0  0  0  0  0  0  0  0  0  0  0
   70.0510   46.7850   -5.2880 C   0  0  0  0  0  0  0  0  0  0  0  0
   68.8670   46.3470   -4.7110 C   0  0  0  0  0  0  0  0  0  0  0  0
   68.1790   45.2640   -5.2540 C   0  0  0  0  0  0  0  0  0  0  0  0
   68.6630   44.5940   -6.3700 C   0  0  0  0  0  0  0  0  0  0  0  0
   69.8650   45.0110   -6.9530 C   0  0  0  0  0  0  0  0  0  0  0  0
   70.4150   44.2900   -8.1140 C   0  0  0  0  0  0  0  0  0  0  0  0
   71.6120   43.6700   -8.0750 C   0  0  0  0  0  0  0  0  0  0  0  0
   72.0960   43.0160   -9.3210 C   0  0  0  0  0  0  0  0  0  0  0  0
   73.1780   42.4400   -9.3980 O   0  0  0  0  0  0  0  0  0  0  0  0
   71.2190   43.0800  -10.4960 C   0  0  0  0  0  0  0  0  0  0  0  0
   71.5880   42.5030  -11.7170 C   0  0  0  0  0  0  0  0  0  0  0  0
   70.7360   42.5750  -12.8160 C   0  0  0  0  0  0  0  0  0  0  0  0
   69.5130   43.2260  -12.6830 C   0  0  0  0  0  0  0  0  0  0  0  0
   69.1350   43.8040  -11.4740 C   0  0  0  0  0  0  0  0  0  0  0  0
   69.9950   43.7320  -10.3780 C   0  0  0  0  0  0  0  0  0  0  0  0
   69.5780   44.3290   -9.2160 O   0  0  0  0  0  0  0  0  0  0  0  0
   68.6450   43.3210  -13.7300 O   0  0  0  0  0  0  0  0  0  0  0  0
   72.7780   41.8510  -11.9050 O   0  0  0  0  0  0  0  0  0  0  0  0
   72.4260   43.5950   -6.9580 O   0  0  0  0  0  0  0  0  0  0  0  0
   67.0130   44.8430   -4.6810 O   0  0  0  0  0  0  0  0  0  0  0  0
   68.3350   46.9480   -3.6050 O   0  0  0  0  0  0  0  0  0  0  0  0
   71.4730   46.4670   -6.8680 H   0  0  0  0  0  0  0  0  0  0  0  0
   70.5980   47.6330   -4.8860 H   0  0  0  0  0  0  0  0  0  0  0  0
   68.1060   43.7510   -6.7710 H   0  0  0  0  0  0  0  0  0  0  0  0
   71.0410   42.1230  -13.7550 H   0  0  0  0  0  0  0  0  0  0  0  0
   68.1760   44.3080  -11.3900 H   0  0  0  0  0  0  0  0  0  0  0  0
   69.0460   43.8770  -14.4200 H   0  0  0  0  0  0  0  0  0  0  0  0
   73.0150   41.3980  -11.0620 H   0  0  0  0  0  0  0  0  0  0  0  0
   72.0030   44.0670   -6.2220 H   0  0  0  0  0  0  0  0  0  0  0  0
   67.1330   43.8810   -4.5500 H   0  0  0  0  0  0  0  0  0  0  0  0
   69.0460   47.0740   -2.9530 H   0  0  0  0  0  0  0  0  0  0  0  0
  1  2  1  0  0  0  0
  2 24  1  0  0  0  0
  2  3  2  0  0  0  0
  3 22  1  0  0  0  0
  4  3  1  0  0  0  0
  4 21  1  0  0  0  0
  5  4  2  0  0  0  0
  6  1  2  0  0  0  0
  6  5  1  0  0  0  0
  7  8  2  0  0  0  0
  7  6  1  0  0  0  0
  8 20  1  0  0  0  0
  9  8  1  0  0  0  0
 10  9  2  0  0  0  0
 11 16  1  0  0  0  0
 11  9  1  0  0  0  0
 12 11  2  0  0  0  0
 13 14  2  0  0  0  0
 13 12  1  0  0  0  0
 14 15  1  0  0  0  0
 15 27  1  0  0  0  0
 15 16  2  0  0  0  0
 16 17  1  0  0  0  0
 17  7  1  0  0  0  0
 18 14  1  0  0  0  0
 19 12  1  0  0  0  0
 19 29  1  0  0  0  0
 20 30  1  0  0  0  0
 21 31  1  0  0  0  0
 22 32  1  0  0  0  0
 23  1  1  0  0  0  0
 25  5  1  0  0  0  0
 26 13  1  0  0  0  0
 28 18  1  0  0  0  0
M  END
>  <Pose>
2

>  <Score>
-5.13

$$$$

 OpenBabel10152114563D

 32 34  0  0  0  0  0  0  0  0999 V2000
   65.5750   41.9800   -7.5160 C   0  0  0  0  0  0  0  0  0  0  0  0
   64.4130   41.4360   -8.0720 C   0  0  0  0  0  0  0  0  0  0  0  0
   63.5980   42.2430   -8.8550 C   0  0  0  0  0  0  0  0  0  0  0  0
   63.9310   43.5780   -9.0740 C   0  0  0  0  0  0  0  0  0  0  0  0
   65.0830   44.1270   -8.5260 C   0  0  0  0  0  0  0  0  0  0  0  0
   65.9250   43.3230   -7.7490 C   0  0  0  0  0  0  0  0  0  0  0  0
   67.1700   43.8770   -7.1910 C   0  0  0  0  0  0  0  0  0  0  0  0
   67.1780   44.6870   -6.1120 C   0  0  0  0  0  0  0  0  0  0  0  0
   68.4870   45.2320   -5.6630 C   0  0  0  0  0  0  0  0  0  0  0  0
   68.6020   45.9920   -4.7040 O   0  0  0  0  0  0  0  0  0  0  0  0
   69.6770   44.8300   -6.4210 C   0  0  0  0  0  0  0  0  0  0  0  0
   70.9540   45.2960   -6.0820 C   0  0  0  0  0  0  0  0  0  0  0  0
   72.0680   44.8960   -6.8160 C   0  0  0  0  0  0  0  0  0  0  0  0
   71.8950   44.0250   -7.8870 C   0  0  0  0  0  0  0  0  0  0  0  0
   70.6310   43.5540   -8.2340 C   0  0  0  0  0  0  0  0  0  0  0  0
   69.5180   43.9630   -7.4970 C   0  0  0  0  0  0  0  0  0  0  0  0
   68.2970   43.4780   -7.8900 O   0  0  0  0  0  0  0  0  0  0  0  0
   72.9550   43.6040   -8.6350 O   0  0  0  0  0  0  0  0  0  0  0  0
   71.1820   46.1540   -5.0390 O   0  0  0  0  0  0  0  0  0  0  0  0
   66.0550   45.0480   -5.3880 O   0  0  0  0  0  0  0  0  0  0  0  0
   63.1210   44.3630   -9.8430 O   0  0  0  0  0  0  0  0  0  0  0  0
   62.4560   41.7690   -9.4370 O   0  0  0  0  0  0  0  0  0  0  0  0
   66.2100   41.3480   -6.8960 H   0  0  0  0  0  0  0  0  0  0  0  0
   64.1670   40.3960   -7.8820 H   0  0  0  0  0  0  0  0  0  0  0  0
   65.3180   45.1720   -8.7140 H   0  0  0  0  0  0  0  0  0  0  0  0
   73.0480   45.2700   -6.5390 H   0  0  0  0  0  0  0  0  0  0  0  0
   70.5170   42.8750   -9.0740 H   0  0  0  0  0  0  0  0  0  0  0  0
   73.7750   43.7830   -8.1440 H   0  0  0  0  0  0  0  0  0  0  0  0
   71.5260   45.6280   -4.2800 H   0  0  0  0  0  0  0  0  0  0  0  0
   65.7380   44.2790   -4.8860 H   0  0  0  0  0  0  0  0  0  0  0  0
   62.2820   44.4190   -9.3440 H   0  0  0  0  0  0  0  0  0  0  0  0
   61.8550   41.4670   -8.7340 H   0  0  0  0  0  0  0  0  0  0  0  0
  1 23  1  0  0  0  0
  2 24  1  0  0  0  0
  2  1  2  0  0  0  0
  3  2  1  0  0  0  0
  4  3  2  0  0  0  0
  4  5  1  0  0  0  0
  5  6  2  0  0  0  0
  6  1  1  0  0  0  0
  6  7  1  0  0  0  0
  7  8  2  0  0  0  0
  8  9  1  0  0  0  0
  8 20  1  0  0  0  0
  9 10  2  0  0  0  0
 11 12  1  0  0  0  0
 11  9  1  0  0  0  0
 12 19  1  0  0  0  0
 13 26  1  0  0  0  0
 13 12  2  0  0  0  0
 14 13  1  0  0  0  0
 15 14  2  0  0  0  0
 15 16  1  0  0  0  0
 16 11  2  0  0  0  0
 17 16  1  0  0  0  0
 17  7  1  0  0  0  0
 18 28  1  0  0  0  0
 18 14  1  0  0  0  0
 19 29  1  0  0  0  0
 20 30  1  0  0  0  0
 21 31  1  0  0  0  0
 21  4  1  0  0  0  0
 22  3  1  0  0  0  0
 22 32  1  0  0  0  0
 25  5  1  0  0  0  0
 27 15  1  0  0  0  0
M  END
>  <Pose>
1

>  <Score>
-4.98

$$$$

 OpenBabel10152114563D

 32 34  0  0  0  0  0  0  0  0999 V2000
   69.4800   45.0210   -6.8730 C   0  0  0  0  0  0  0  0  0  0  0  0
   70.7850   45.4270   -6.5750 C   0  0  0  0  0  0  0  0  0  0  0  0
   71.8470   44.6220   -6.9640 C   0  0  0  0  0  0  0  0  0  0  0  0
   71.6120   43.4220   -7.6330 C   0  0  0  0  0  0  0  0  0  0  0  0
   70.3210   43.0100   -7.9340 C   0  0  0  0  0  0  0  0  0  0  0  0
   69.2390   43.8190   -7.5650 C   0  0  0  0  0  0  0  0  0  0  0  0
   67.8640   43.4180   -7.9080 C   0  0  0  0  0  0  0  0  0  0  0  0
   66.9510   43.1030   -6.9670 C   0  0  0  0  0  0  0  0  0  0  0  0
   65.6060   42.6610   -7.4250 C   0  0  0  0  0  0  0  0  0  0  0  0
   64.7080   42.3340   -6.6520 O   0  0  0  0  0  0  0  0  0  0  0  0
   65.3700   42.6210   -8.8730 C   0  0  0  0  0  0  0  0  0  0  0  0
   64.1410   42.2110   -9.4040 C   0  0  0  0  0  0  0  0  0  0  0  0
   63.9420   42.1860  -10.7820 C   0  0  0  0  0  0  0  0  0  0  0  0
   64.9810   42.5760  -11.6230 C   0  0  0  0  0  0  0  0  0  0  0  0
   66.2070   42.9850  -11.1070 C   0  0  0  0  0  0  0  0  0  0  0  0
   66.4010   43.0040   -9.7260 C   0  0  0  0  0  0  0  0  0  0  0  0
   67.6320   43.4040   -9.2730 O   0  0  0  0  0  0  0  0  0  0  0  0
   64.8340   42.5690  -12.9790 O   0  0  0  0  0  0  0  0  0  0  0  0
   63.0860   41.8170   -8.6250 O   0  0  0  0  0  0  0  0  0  0  0  0
   67.1710   43.1610   -5.6020 O   0  0  0  0  0  0  0  0  0  0  0  0
   72.6640   42.6370   -8.0090 O   0  0  0  0  0  0  0  0  0  0  0  0
   73.1450   44.9670   -6.7150 O   0  0  0  0  0  0  0  0  0  0  0  0
   68.6470   45.6500   -6.5610 H   0  0  0  0  0  0  0  0  0  0  0  0
   70.9450   46.3610   -6.0460 H   0  0  0  0  0  0  0  0  0  0  0  0
   70.1680   42.0700   -8.4570 H   0  0  0  0  0  0  0  0  0  0  0  0
   62.9830   41.8630  -11.1750 H   0  0  0  0  0  0  0  0  0  0  0  0
   67.0060   43.2850  -11.7800 H   0  0  0  0  0  0  0  0  0  0  0  0
   64.2870   41.8050  -13.2310 H   0  0  0  0  0  0  0  0  0  0  0  0
   63.3080   42.0180   -7.6860 H   0  0  0  0  0  0  0  0  0  0  0  0
   66.3340   43.3650   -5.1520 H   0  0  0  0  0  0  0  0  0  0  0  0
   73.4580   43.1230   -7.7080 H   0  0  0  0  0  0  0  0  0  0  0  0
   73.5790   44.2240   -6.2600 H   0  0  0  0  0  0  0  0  0  0  0  0
  1  2  1  0  0  0  0
  1 23  1  0  0  0  0
  2 24  1  0  0  0  0
  3 22  1  0  0  0  0
  3  2  2  0  0  0  0
  4  3  1  0  0  0  0
  5  4  2  0  0  0  0
  5  6  1  0  0  0  0
  6  1  2  0  0  0  0
  7  6  1  0  0  0  0
  7  8  2  0  0  0  0
  8 20  1  0  0  0  0
  9  8  1  0  0  0  0
  9 10  2  0  0  0  0
 11  9  1  0  0  0  0
 12 11  1  0  0  0  0
 12 19  1  0  0  0  0
 13 12  2  0  0  0  0
 14 15  2  0  0  0  0
 14 13  1  0  0  0  0
 15 16  1  0  0  0  0
 16 17  1  0  0  0  0
 16 11  2  0  0  0  0
 17  7  1  0  0  0  0
 18 14  1  0  0  0  0
 19 29  1  0  0  0  0
 20 30  1  0  0  0  0
 21 31  1  0  0  0  0
 21  4  1  0  0  0  0
 22 32  1  0  0  0  0
 25  5  1  0  0  0  0
 26 13  1  0  0  0  0
 27 15  1  0  0  0  0
 28 18  1  0  0  0  0
M  END
>  <Pose>
1

>  <Score>
-4.88

$$$$

 OpenBabel10152114563D

 32 34  0  0  0  0  0  0  0  0999 V2000
   65.8760   43.4650   -9.9660 C   0  0  0  0  0  0  0  0  0  0  0  0
   64.7310   43.0190  -10.6340 C   0  0  0  0  0  0  0  0  0  0  0  0
   63.8310   42.2040   -9.9600 C   0  0  0  0  0  0  0  0  0  0  0  0
   64.0750   41.8280   -8.6410 C   0  0  0  0  0  0  0  0  0  0  0  0
   65.2090   42.2660   -7.9690 C   0  0  0  0  0  0  0  0  0  0  0  0
   66.1160   43.1030   -8.6270 C   0  0  0  0  0  0  0  0  0  0  0  0
   67.3050   43.6080   -7.9200 C   0  0  0  0  0  0  0  0  0  0  0  0
   67.2140   44.4020   -6.8340 C   0  0  0  0  0  0  0  0  0  0  0  0
   68.4780   44.8980   -6.2270 C   0  0  0  0  0  0  0  0  0  0  0  0
   68.5060   45.6400   -5.2480 O   0  0  0  0  0  0  0  0  0  0  0  0
   69.7350   44.4670   -6.8500 C   0  0  0  0  0  0  0  0  0  0  0  0
   70.9780   44.8870   -6.3590 C   0  0  0  0  0  0  0  0  0  0  0  0
   72.1560   44.4610   -6.9670 C   0  0  0  0  0  0  0  0  0  0  0  0
   72.0810   43.6110   -8.0660 C   0  0  0  0  0  0  0  0  0  0  0  0
   70.8510   43.1870   -8.5640 C   0  0  0  0  0  0  0  0  0  0  0  0
   69.6750   43.6210   -7.9530 C   0  0  0  0  0  0  0  0  0  0  0  0
   68.4930   43.1830   -8.4920 O   0  0  0  0  0  0  0  0  0  0  0  0
   73.2070   43.1660   -8.6950 O   0  0  0  0  0  0  0  0  0  0  0  0
   71.1100   45.7230   -5.2820 O   0  0  0  0  0  0  0  0  0  0  0  0
   66.0260   44.7890   -6.2370 O   0  0  0  0  0  0  0  0  0  0  0  0
   63.1850   41.0240   -7.9880 O   0  0  0  0  0  0  0  0  0  0  0  0
   62.6880   41.7450  -10.5510 O   0  0  0  0  0  0  0  0  0  0  0  0
   66.5840   44.0990  -10.4980 H   0  0  0  0  0  0  0  0  0  0  0  0
   64.5640   43.3160  -11.6650 H   0  0  0  0  0  0  0  0  0  0  0  0
   65.3720   41.9580   -6.9390 H   0  0  0  0  0  0  0  0  0  0  0  0
   73.1090   44.7990   -6.5730 H   0  0  0  0  0  0  0  0  0  0  0  0
   70.8140   42.5240   -9.4240 H   0  0  0  0  0  0  0  0  0  0  0  0
   73.9850   43.4900   -8.2100 H   0  0  0  0  0  0  0  0  0  0  0  0
   71.4360   45.1890   -4.5200 H   0  0  0  0  0  0  0  0  0  0  0  0
   65.8590   44.2250   -5.4640 H   0  0  0  0  0  0  0  0  0  0  0  0
   62.3550   41.5400   -7.9620 H   0  0  0  0  0  0  0  0  0  0  0  0
   62.6240   40.7860  -10.3940 H   0  0  0  0  0  0  0  0  0  0  0  0
  1  6  1  0  0  0  0
  2  1  2  0  0  0  0
  2  3  1  0  0  0  0
  3  4  2  0  0  0  0
  4 21  1  0  0  0  0
  4  5  1  0  0  0  0
  5 25  1  0  0  0  0
  6  5  2  0  0  0  0
  6  7  1  0  0  0  0
  7  8  2  0  0  0  0
  8 20  1  0  0  0  0
  8  9  1  0  0  0  0
  9 10  2  0  0  0  0
 11 12  1  0  0  0  0
 11  9  1  0  0  0  0
 12 19  1  0  0  0  0
 13 26  1  0  0  0  0
 13 12  2  0  0  0  0
 14 13  1  0  0  0  0
 15 14  2  0  0  0  0
 15 16  1  0  0  0  0
 16 11  2  0  0  0  0
 17 16  1  0  0  0  0
 17  7  1  0  0  0  0
 18 28  1  0  0  0  0
 18 14  1  0  0  0  0
 19 29  1  0  0  0  0
 20 30  1  0  0  0  0
 21 31  1  0  0  0  0
 22 32  1  0  0  0  0
 22  3  1  0  0  0  0
 23  1  1  0  0  0  0
 24  2  1  0  0  0  0
 27 15  1  0  0  0  0
M  END
>  <Pose>
1

>  <Score>
-4.85

$$$$
