
 OpenBabel10152114563D

 32 34  0  0  0  0  0  0  0  0999 V2000
   63.1090   20.4400   -3.5640 C   0  0  0  0  0  0  0  0  0  0  0  0
   62.4610   21.0520   -4.6420 C   0  0  0  0  0  0  0  0  0  0  0  0
   63.2220   21.7010   -5.6060 C   0  0  0  0  0  0  0  0  0  0  0  0
   64.6090   21.7480   -5.4930 C   0  0  0  0  0  0  0  0  0  0  0  0
   65.2620   21.1430   -4.4270 C   0  0  0  0  0  0  0  0  0  0  0  0
   64.5120   20.4690   -3.4560 C   0  0  0  0  0  0  0  0  0  0  0  0
   65.1880   19.7890   -2.3380 C   0  0  0  0  0  0  0  0  0  0  0  0
   65.4070   18.4590   -2.3310 C   0  0  0  0  0  0  0  0  0  0  0  0
   66.0520   17.8670   -1.1280 C   0  0  0  0  0  0  0  0  0  0  0  0
   66.2800   16.6650   -1.0130 O   0  0  0  0  0  0  0  0  0  0  0  0
   66.4210   18.7850   -0.0450 C   0  0  0  0  0  0  0  0  0  0  0  0
   67.0240   18.3240    1.1320 C   0  0  0  0  0  0  0  0  0  0  0  0
   67.3670   19.2170    2.1440 C   0  0  0  0  0  0  0  0  0  0  0  0
   67.1030   20.5720    1.9690 C   0  0  0  0  0  0  0  0  0  0  0  0
   66.5030   21.0420    0.8040 C   0  0  0  0  0  0  0  0  0  0  0  0
   66.1580   20.1420   -0.2050 C   0  0  0  0  0  0  0  0  0  0  0  0
   65.5590   20.6580   -1.3250 O   0  0  0  0  0  0  0  0  0  0  0  0
   67.4210   21.4850    2.9310 O   0  0  0  0  0  0  0  0  0  0  0  0
   67.3060   17.0030    1.3580 O   0  0  0  0  0  0  0  0  0  0  0  0
   65.0760   17.5990   -3.3650 O   0  0  0  0  0  0  0  0  0  0  0  0
   65.3470   22.3910   -6.4450 O   0  0  0  0  0  0  0  0  0  0  0  0
   62.6510   22.3080   -6.6890 O   0  0  0  0  0  0  0  0  0  0  0  0
   62.5110   19.9380   -2.8050 H   0  0  0  0  0  0  0  0  0  0  0  0
   61.3780   21.0120   -4.7060 H   0  0  0  0  0  0  0  0  0  0  0  0
   66.3460   21.1950   -4.3650 H   0  0  0  0  0  0  0  0  0  0  0  0
   67.8320   18.8400    3.0500 H   0  0  0  0  0  0  0  0  0  0  0  0
   66.3050   22.1040    0.6860 H   0  0  0  0  0  0  0  0  0  0  0  0
   66.6010   21.8910    3.2610 H   0  0  0  0  0  0  0  0  0  0  0  0
   67.6150   16.9120    2.2900 H   0  0  0  0  0  0  0  0  0  0  0  0
   64.2820   17.9320   -3.8150 H   0  0  0  0  0  0  0  0  0  0  0  0
   65.0900   21.9660   -7.2880 H   0  0  0  0  0  0  0  0  0  0  0  0
   63.3610   22.6720   -7.2460 H   0  0  0  0  0  0  0  0  0  0  0  0
  1  6  1  0  0  0  0
  1 23  1  0  0  0  0
  2  1  2  0  0  0  0
  3  4  2  0  0  0  0
  3  2  1  0  0  0  0
  4  5  1  0  0  0  0
  5 25  1  0  0  0  0
  5  6  2  0  0  0  0
  6  7  1  0  0  0  0
  7  8  2  0  0  0  0
  7 17  1  0  0  0  0
  8  9  1  0  0  0  0
  9 10  2  0  0  0  0
  9 11  1  0  0  0  0
 11 12  1  0  0  0  0
 12 19  1  0  0  0  0
 12 13  2  0  0  0  0
 13 26  1  0  0  0  0
 14 13  1  0  0  0  0
 14 18  1  0  0  0  0
 15 14  2  0  0  0  0
 16 11  2  0  0  0  0
 16 15  1  0  0  0  0
 17 16  1  0  0  0  0
 18 28  1  0  0  0  0
 19 29  1  0  0  0  0
 20  8  1  0  0  0  0
 21  4  1  0  0  0  0
 22  3  1  0  0  0  0
 24  2  1  0  0  0  0
 27 15  1  0  0  0  0
 30 20  1  0  0  0  0
 31 21  1  0  0  0  0
 32 22  1  0  0  0  0
M  END
>  <Pose>
3

>  <Score>
-3.41

$$$$

 OpenBabel10152114563D

 32 34  0  0  0  0  0  0  0  0999 V2000
   63.8980   21.4330   -2.7290 C   0  0  0  0  0  0  0  0  0  0  0  0
   63.3460   22.5590   -3.3470 C   0  0  0  0  0  0  0  0  0  0  0  0
   63.7900   22.9180   -4.6130 C   0  0  0  0  0  0  0  0  0  0  0  0
   64.7780   22.1720   -5.2510 C   0  0  0  0  0  0  0  0  0  0  0  0
   65.3320   21.0510   -4.6450 C   0  0  0  0  0  0  0  0  0  0  0  0
   64.8840   20.6640   -3.3770 C   0  0  0  0  0  0  0  0  0  0  0  0
   65.4320   19.4580   -2.7330 C   0  0  0  0  0  0  0  0  0  0  0  0
   65.6530   18.3160   -3.4160 C   0  0  0  0  0  0  0  0  0  0  0  0
   66.1610   17.1410   -2.6570 C   0  0  0  0  0  0  0  0  0  0  0  0
   66.3780   16.0500   -3.1790 O   0  0  0  0  0  0  0  0  0  0  0  0
   66.4010   17.3230   -1.2210 C   0  0  0  0  0  0  0  0  0  0  0  0
   66.8700   16.2750   -0.4190 C   0  0  0  0  0  0  0  0  0  0  0  0
   67.0930   16.4750    0.9410 C   0  0  0  0  0  0  0  0  0  0  0  0
   66.8460   17.7300    1.4900 C   0  0  0  0  0  0  0  0  0  0  0  0
   66.3800   18.7790    0.7030 C   0  0  0  0  0  0  0  0  0  0  0  0
   66.1540   18.5710   -0.6580 C   0  0  0  0  0  0  0  0  0  0  0  0
   65.6820   19.6350   -1.3830 O   0  0  0  0  0  0  0  0  0  0  0  0
   67.0500   17.9740    2.8160 O   0  0  0  0  0  0  0  0  0  0  0  0
   67.1300   15.0220   -0.9050 O   0  0  0  0  0  0  0  0  0  0  0  0
   65.4440   18.1550   -4.7750 O   0  0  0  0  0  0  0  0  0  0  0  0
   65.2080   22.5350   -6.4940 O   0  0  0  0  0  0  0  0  0  0  0  0
   63.2820   24.0000   -5.2770 O   0  0  0  0  0  0  0  0  0  0  0  0
   63.5550   21.1560   -1.7320 H   0  0  0  0  0  0  0  0  0  0  0  0
   62.5840   23.1330   -2.8290 H   0  0  0  0  0  0  0  0  0  0  0  0
   66.1000   20.4870   -5.1660 H   0  0  0  0  0  0  0  0  0  0  0  0
   67.4550   15.6500    1.5470 H   0  0  0  0  0  0  0  0  0  0  0  0
   66.1920   19.7510    1.1510 H   0  0  0  0  0  0  0  0  0  0  0  0
   66.4450   18.6800    3.1010 H   0  0  0  0  0  0  0  0  0  0  0  0
   66.7250   14.9520   -1.8010 H   0  0  0  0  0  0  0  0  0  0  0  0
   64.9110   17.3570   -4.9230 H   0  0  0  0  0  0  0  0  0  0  0  0
   64.7280   21.9430   -7.1070 H   0  0  0  0  0  0  0  0  0  0  0  0
   64.0050   24.4210   -5.7750 H   0  0  0  0  0  0  0  0  0  0  0  0
  1 23  1  0  0  0  0
  2 24  1  0  0  0  0
  2  1  1  0  0  0  0
  3  2  2  0  0  0  0
  4  5  2  0  0  0  0
  4  3  1  0  0  0  0
  5  6  1  0  0  0  0
  6  7  1  0  0  0  0
  6  1  2  0  0  0  0
  7 17  1  0  0  0  0
  8  7  2  0  0  0  0
  8  9  1  0  0  0  0
  9 11  1  0  0  0  0
 10  9  2  0  0  0  0
 11 16  2  0  0  0  0
 11 12  1  0  0  0  0
 12 13  2  0  0  0  0
 13 14  1  0  0  0  0
 13 26  1  0  0  0  0
 14 18  1  0  0  0  0
 15 27  1  0  0  0  0
 15 14  2  0  0  0  0
 16 15  1  0  0  0  0
 17 16  1  0  0  0  0
 18 28  1  0  0  0  0
 19 12  1  0  0  0  0
 20  8  1  0  0  0  0
 21  4  1  0  0  0  0
 22  3  1  0  0  0  0
 25  5  1  0  0  0  0
 29 19  1  0  0  0  0
 30 20  1  0  0  0  0
 31 21  1  0  0  0  0
 32 22  1  0  0  0  0
M  END
>  <Pose>
1

>  <Score>
-2.22

$$$$

 OpenBabel10152114563D

 32 34  0  0  0  0  0  0  0  0999 V2000
   66.4510   18.5690    3.2020 C   0  0  0  0  0  0  0  0  0  0  0  0
   66.6330   19.1060    4.4810 C   0  0  0  0  0  0  0  0  0  0  0  0
   67.3670   20.2760    4.6220 C   0  0  0  0  0  0  0  0  0  0  0  0
   67.9210   20.8990    3.5050 C   0  0  0  0  0  0  0  0  0  0  0  0
   67.7460   20.3730    2.2320 C   0  0  0  0  0  0  0  0  0  0  0  0
   66.9930   19.2040    2.0690 C   0  0  0  0  0  0  0  0  0  0  0  0
   66.7640   18.6520    0.7230 C   0  0  0  0  0  0  0  0  0  0  0  0
   66.2650   19.3970   -0.2850 C   0  0  0  0  0  0  0  0  0  0  0  0
   66.0240   18.7250   -1.5900 C   0  0  0  0  0  0  0  0  0  0  0  0
   65.5560   19.3070   -2.5660 O   0  0  0  0  0  0  0  0  0  0  0  0
   66.3690   17.3020   -1.6870 C   0  0  0  0  0  0  0  0  0  0  0  0
   66.1710   16.5790   -2.8700 C   0  0  0  0  0  0  0  0  0  0  0  0
   66.5100   15.2300   -2.9360 C   0  0  0  0  0  0  0  0  0  0  0  0
   67.0500   14.6120   -1.8120 C   0  0  0  0  0  0  0  0  0  0  0  0
   67.2500   15.3200   -0.6290 C   0  0  0  0  0  0  0  0  0  0  0  0
   66.9050   16.6710   -0.5690 C   0  0  0  0  0  0  0  0  0  0  0  0
   67.1120   17.3150    0.6240 O   0  0  0  0  0  0  0  0  0  0  0  0
   67.3970   13.2940   -1.8280 O   0  0  0  0  0  0  0  0  0  0  0  0
   65.6450   17.1360   -4.0050 O   0  0  0  0  0  0  0  0  0  0  0  0
   65.9600   20.7440   -0.1950 O   0  0  0  0  0  0  0  0  0  0  0  0
   68.6430   22.0480    3.6560 O   0  0  0  0  0  0  0  0  0  0  0  0
   67.5710   20.8590    5.8410 O   0  0  0  0  0  0  0  0  0  0  0  0
   65.8810   17.6470    3.0930 H   0  0  0  0  0  0  0  0  0  0  0  0
   66.2010   18.6010    5.3380 H   0  0  0  0  0  0  0  0  0  0  0  0
   68.1890   20.8810    1.3790 H   0  0  0  0  0  0  0  0  0  0  0  0
   66.3480   14.6870   -3.8610 H   0  0  0  0  0  0  0  0  0  0  0  0
   67.6720   14.8190    0.2380 H   0  0  0  0  0  0  0  0  0  0  0  0
   67.1380   12.8910   -0.9820 H   0  0  0  0  0  0  0  0  0  0  0  0
   64.7030   16.8520   -4.0760 H   0  0  0  0  0  0  0  0  0  0  0  0
   65.7350   20.9600    0.7250 H   0  0  0  0  0  0  0  0  0  0  0  0
   69.5760   21.7710    3.5480 H   0  0  0  0  0  0  0  0  0  0  0  0
   67.4770   20.1760    6.5280 H   0  0  0  0  0  0  0  0  0  0  0  0
  1  2  1  0  0  0  0
  2  3  2  0  0  0  0
  2 24  1  0  0  0  0
  3 22  1  0  0  0  0
  4 21  1  0  0  0  0
  4  3  1  0  0  0  0
  5  4  2  0  0  0  0
  6  5  1  0  0  0  0
  6  1  2  0  0  0  0
  7  6  1  0  0  0  0
  8 20  1  0  0  0  0
  8  7  2  0  0  0  0
  9  8  1  0  0  0  0
 10  9  2  0  0  0  0
 11  9  1  0  0  0  0
 11 16  1  0  0  0  0
 12 11  2  0  0  0  0
 13 12  1  0  0  0  0
 13 14  2  0  0  0  0
 14 15  1  0  0  0  0
 15 16  2  0  0  0  0
 15 27  1  0  0  0  0
 16 17  1  0  0  0  0
 17  7  1  0  0  0  0
 18 14  1  0  0  0  0
 18 28  1  0  0  0  0
 19 12  1  0  0  0  0
 20 30  1  0  0  0  0
 22 32  1  0  0  0  0
 23  1  1  0  0  0  0
 25  5  1  0  0  0  0
 26 13  1  0  0  0  0
 29 19  1  0  0  0  0
 31 21  1  0  0  0  0
M  END
>  <Pose>
1

>  <Score>
-1.08

$$$$
