
 OpenBabel10152114563D

 32 34  0  0  0  0  0  0  0  0999 V2000
   74.4090   21.0030  -18.3800 C   0  0  0  0  0  0  0  0  0  0  0  0
   74.8780   19.6980  -18.2010 C   0  0  0  0  0  0  0  0  0  0  0  0
   76.0950   19.3360  -18.7630 C   0  0  0  0  0  0  0  0  0  0  0  0
   76.8310   20.2580  -19.5030 C   0  0  0  0  0  0  0  0  0  0  0  0
   76.3740   21.5570  -19.6870 C   0  0  0  0  0  0  0  0  0  0  0  0
   75.1580   21.9440  -19.1110 C   0  0  0  0  0  0  0  0  0  0  0  0
   74.6750   23.3270  -19.2630 C   0  0  0  0  0  0  0  0  0  0  0  0
   75.3150   24.3780  -18.7100 C   0  0  0  0  0  0  0  0  0  0  0  0
   74.7110   25.7270  -18.8810 C   0  0  0  0  0  0  0  0  0  0  0  0
   75.2040   26.7470  -18.4040 O   0  0  0  0  0  0  0  0  0  0  0  0
   73.4700   25.8130  -19.6590 C   0  0  0  0  0  0  0  0  0  0  0  0
   72.8200   27.0350  -19.8690 C   0  0  0  0  0  0  0  0  0  0  0  0
   71.6450   27.0900  -20.6140 C   0  0  0  0  0  0  0  0  0  0  0  0
   71.1270   25.9130  -21.1480 C   0  0  0  0  0  0  0  0  0  0  0  0
   71.7640   24.6920  -20.9460 C   0  0  0  0  0  0  0  0  0  0  0  0
   72.9390   24.6430  -20.1950 C   0  0  0  0  0  0  0  0  0  0  0  0
   73.5160   23.4130  -20.0170 O   0  0  0  0  0  0  0  0  0  0  0  0
   69.9800   25.9160  -21.8850 O   0  0  0  0  0  0  0  0  0  0  0  0
   73.2840   28.2220  -19.3670 O   0  0  0  0  0  0  0  0  0  0  0  0
   76.4970   24.2950  -17.9950 O   0  0  0  0  0  0  0  0  0  0  0  0
   78.0250   19.8910  -20.0540 O   0  0  0  0  0  0  0  0  0  0  0  0
   76.6150   18.0800  -18.6150 O   0  0  0  0  0  0  0  0  0  0  0  0
   73.4510   21.2840  -17.9440 H   0  0  0  0  0  0  0  0  0  0  0  0
   74.2850   18.9910  -17.6290 H   0  0  0  0  0  0  0  0  0  0  0  0
   76.9700   22.2560  -20.2680 H   0  0  0  0  0  0  0  0  0  0  0  0
   71.1550   28.0470  -20.7640 H   0  0  0  0  0  0  0  0  0  0  0  0
   71.3430   23.7840  -21.3710 H   0  0  0  0  0  0  0  0  0  0  0  0
   69.4040   26.6310  -21.5650 H   0  0  0  0  0  0  0  0  0  0  0  0
   72.7930   28.4150  -18.5340 H   0  0  0  0  0  0  0  0  0  0  0  0
   76.3450   24.6160  -17.0900 H   0  0  0  0  0  0  0  0  0  0  0  0
   78.6940   20.4160  -19.5710 H   0  0  0  0  0  0  0  0  0  0  0  0
   77.5310   18.1630  -18.2970 H   0  0  0  0  0  0  0  0  0  0  0  0
  1  2  1  0  0  0  0
  1 23  1  0  0  0  0
  2 24  1  0  0  0  0
  3 22  1  0  0  0  0
  3  2  2  0  0  0  0
  4  3  1  0  0  0  0
  5  4  2  0  0  0  0
  5  6  1  0  0  0  0
  6  1  2  0  0  0  0
  7  6  1  0  0  0  0
  7  8  2  0  0  0  0
  8 20  1  0  0  0  0
  9  8  1  0  0  0  0
  9 10  2  0  0  0  0
 11  9  1  0  0  0  0
 12 11  1  0  0  0  0
 12 19  1  0  0  0  0
 13 12  2  0  0  0  0
 14 15  2  0  0  0  0
 14 13  1  0  0  0  0
 15 16  1  0  0  0  0
 16 17  1  0  0  0  0
 16 11  2  0  0  0  0
 17  7  1  0  0  0  0
 18 28  1  0  0  0  0
 18 14  1  0  0  0  0
 19 29  1  0  0  0  0
 20 30  1  0  0  0  0
 21 31  1  0  0  0  0
 21  4  1  0  0  0  0
 22 32  1  0  0  0  0
 25  5  1  0  0  0  0
 26 13  1  0  0  0  0
 27 15  1  0  0  0  0
M  END
>  <Pose>
2

>  <Score>
-4.44

$$$$

 OpenBabel10152114563D

 32 34  0  0  0  0  0  0  0  0999 V2000
   75.5820   22.1570  -21.3430 C   0  0  0  0  0  0  0  0  0  0  0  0
   76.6070   21.2040  -21.3340 C   0  0  0  0  0  0  0  0  0  0  0  0
   77.0090   20.6600  -20.1220 C   0  0  0  0  0  0  0  0  0  0  0  0
   76.4070   21.0660  -18.9330 C   0  0  0  0  0  0  0  0  0  0  0  0
   75.3890   22.0100  -18.9320 C   0  0  0  0  0  0  0  0  0  0  0  0
   74.9580   22.5560  -20.1470 C   0  0  0  0  0  0  0  0  0  0  0  0
   73.8540   23.5310  -20.1710 C   0  0  0  0  0  0  0  0  0  0  0  0
   72.5840   23.1740  -20.4500 C   0  0  0  0  0  0  0  0  0  0  0  0
   71.5550   24.2480  -20.4990 C   0  0  0  0  0  0  0  0  0  0  0  0
   70.3740   24.0320  -20.7620 O   0  0  0  0  0  0  0  0  0  0  0  0
   72.0010   25.6170  -20.2170 C   0  0  0  0  0  0  0  0  0  0  0  0
   71.1110   26.6980  -20.2470 C   0  0  0  0  0  0  0  0  0  0  0  0
   71.5600   27.9870  -19.9730 C   0  0  0  0  0  0  0  0  0  0  0  0
   72.9030   28.1860  -19.6670 C   0  0  0  0  0  0  0  0  0  0  0  0
   73.7970   27.1200  -19.6350 C   0  0  0  0  0  0  0  0  0  0  0  0
   73.3430   25.8310  -19.9150 C   0  0  0  0  0  0  0  0  0  0  0  0
   74.2690   24.8210  -19.8810 O   0  0  0  0  0  0  0  0  0  0  0  0
   73.3890   29.4300  -19.3910 O   0  0  0  0  0  0  0  0  0  0  0  0
   69.7810   26.5610  -20.5420 O   0  0  0  0  0  0  0  0  0  0  0  0
   72.1650   21.8780  -20.6950 O   0  0  0  0  0  0  0  0  0  0  0  0
   76.8130   20.5260  -17.7460 O   0  0  0  0  0  0  0  0  0  0  0  0
   77.9950   19.7170  -20.0450 O   0  0  0  0  0  0  0  0  0  0  0  0
   75.2720   22.5890  -22.2940 H   0  0  0  0  0  0  0  0  0  0  0  0
   77.0690   20.9090  -22.2700 H   0  0  0  0  0  0  0  0  0  0  0  0
   74.9360   22.3070  -17.9900 H   0  0  0  0  0  0  0  0  0  0  0  0
   70.8550   28.8120  -20.0030 H   0  0  0  0  0  0  0  0  0  0  0  0
   74.8420   27.2960  -19.3950 H   0  0  0  0  0  0  0  0  0  0  0  0
   72.9540   29.7650  -18.5890 H   0  0  0  0  0  0  0  0  0  0  0  0
   69.2660   27.0760  -19.8780 H   0  0  0  0  0  0  0  0  0  0  0  0
   72.8530   21.4080  -21.1950 H   0  0  0  0  0  0  0  0  0  0  0  0
   77.6560   20.9780  -17.5420 H   0  0  0  0  0  0  0  0  0  0  0  0
   78.6510   20.0100  -19.3880 H   0  0  0  0  0  0  0  0  0  0  0  0
  1  2  2  0  0  0  0
  1  6  1  0  0  0  0
  2  3  1  0  0  0  0
  3 22  1  0  0  0  0
  3  4  2  0  0  0  0
  4  5  1  0  0  0  0
  4 21  1  0  0  0  0
  5 25  1  0  0  0  0
  6  5  2  0  0  0  0
  7  6  1  0  0  0  0
  7 17  1  0  0  0  0
  8  7  2  0  0  0  0
  9  8  1  0  0  0  0
  9 11  1  0  0  0  0
 10  9  2  0  0  0  0
 11 16  1  0  0  0  0
 12 11  2  0  0  0  0
 12 13  1  0  0  0  0
 13 14  2  0  0  0  0
 14 15  1  0  0  0  0
 14 18  1  0  0  0  0
 15 27  1  0  0  0  0
 16 17  1  0  0  0  0
 16 15  2  0  0  0  0
 18 28  1  0  0  0  0
 19 12  1  0  0  0  0
 19 29  1  0  0  0  0
 20  8  1  0  0  0  0
 21 31  1  0  0  0  0
 22 32  1  0  0  0  0
 23  1  1  0  0  0  0
 24  2  1  0  0  0  0
 26 13  1  0  0  0  0
 30 20  1  0  0  0  0
M  END
>  <Pose>
1

>  <Score>
-4.29

$$$$

 OpenBabel10152114563D

 32 34  0  0  0  0  0  0  0  0999 V2000
   75.1260   19.4620  -19.8430 C   0  0  0  0  0  0  0  0  0  0  0  0
   75.6030   18.1530  -19.9550 C   0  0  0  0  0  0  0  0  0  0  0  0
   76.9000   17.9440  -20.4040 C   0  0  0  0  0  0  0  0  0  0  0  0
   77.7090   19.0260  -20.7470 C   0  0  0  0  0  0  0  0  0  0  0  0
   77.2440   20.3300  -20.6380 C   0  0  0  0  0  0  0  0  0  0  0  0
   75.9450   20.5590  -20.1700 C   0  0  0  0  0  0  0  0  0  0  0  0
   75.4470   21.9360  -20.0120 C   0  0  0  0  0  0  0  0  0  0  0  0
   75.8220   22.7240  -18.9830 C   0  0  0  0  0  0  0  0  0  0  0  0
   75.2180   24.0800  -18.8910 C   0  0  0  0  0  0  0  0  0  0  0  0
   75.4770   24.8690  -17.9850 O   0  0  0  0  0  0  0  0  0  0  0  0
   74.2700   24.4650  -19.9430 C   0  0  0  0  0  0  0  0  0  0  0  0
   73.6410   25.7170  -19.9400 C   0  0  0  0  0  0  0  0  0  0  0  0
   72.7480   26.0590  -20.9520 C   0  0  0  0  0  0  0  0  0  0  0  0
   72.4920   25.1410  -21.9670 C   0  0  0  0  0  0  0  0  0  0  0  0
   73.1100   23.8940  -21.9800 C   0  0  0  0  0  0  0  0  0  0  0  0
   74.0000   23.5550  -20.9610 C   0  0  0  0  0  0  0  0  0  0  0  0
   74.5710   22.3100  -21.0170 O   0  0  0  0  0  0  0  0  0  0  0  0
   71.6260   25.4300  -22.9800 O   0  0  0  0  0  0  0  0  0  0  0  0
   73.8560   26.6570  -18.9680 O   0  0  0  0  0  0  0  0  0  0  0  0
   76.7320   22.3640  -18.0050 O   0  0  0  0  0  0  0  0  0  0  0  0
   78.9820   18.8090  -21.1900 O   0  0  0  0  0  0  0  0  0  0  0  0
   77.4310   16.6910  -20.5250 O   0  0  0  0  0  0  0  0  0  0  0  0
   74.1050   19.6250  -19.4970 H   0  0  0  0  0  0  0  0  0  0  0  0
   74.9540   17.3240  -19.6920 H   0  0  0  0  0  0  0  0  0  0  0  0
   77.8970   21.1550  -20.9110 H   0  0  0  0  0  0  0  0  0  0  0  0
   72.2700   27.0330  -20.9320 H   0  0  0  0  0  0  0  0  0  0  0  0
   72.8960   23.1910  -22.7810 H   0  0  0  0  0  0  0  0  0  0  0  0
   71.1550   26.2530  -22.7640 H   0  0  0  0  0  0  0  0  0  0  0  0
   73.0640   26.6770  -18.3820 H   0  0  0  0  0  0  0  0  0  0  0  0
   77.6240   22.3430  -18.3900 H   0  0  0  0  0  0  0  0  0  0  0  0
   79.2560   17.9740  -20.7610 H   0  0  0  0  0  0  0  0  0  0  0  0
   78.2370   16.6450  -19.9820 H   0  0  0  0  0  0  0  0  0  0  0  0
  1 23  1  0  0  0  0
  2  1  1  0  0  0  0
  2 24  1  0  0  0  0
  3  2  2  0  0  0  0
  4  5  2  0  0  0  0
  4  3  1  0  0  0  0
  5  6  1  0  0  0  0
  6  7  1  0  0  0  0
  6  1  2  0  0  0  0
  7  8  2  0  0  0  0
  8  9  1  0  0  0  0
  8 20  1  0  0  0  0
  9 10  2  0  0  0  0
 11 12  1  0  0  0  0
 11  9  1  0  0  0  0
 12 19  1  0  0  0  0
 13 26  1  0  0  0  0
 13 12  2  0  0  0  0
 14 13  1  0  0  0  0
 15 14  2  0  0  0  0
 15 16  1  0  0  0  0
 16 11  2  0  0  0  0
 17 16  1  0  0  0  0
 17  7  1  0  0  0  0
 18 28  1  0  0  0  0
 18 14  1  0  0  0  0
 19 29  1  0  0  0  0
 21 31  1  0  0  0  0
 21  4  1  0  0  0  0
 22  3  1  0  0  0  0
 22 32  1  0  0  0  0
 25  5  1  0  0  0  0
 27 15  1  0  0  0  0
 30 20  1  0  0  0  0
M  END
>  <Pose>
1

>  <Score>
-4.12

$$$$

 OpenBabel10152114563D

 32 34  0  0  0  0  0  0  0  0999 V2000
   76.1490   21.5350  -21.3890 C   0  0  0  0  0  0  0  0  0  0  0  0
   77.1130   20.5220  -21.4220 C   0  0  0  0  0  0  0  0  0  0  0  0
   77.4340   19.8580  -20.2460 C   0  0  0  0  0  0  0  0  0  0  0  0
   76.8110   20.2060  -19.0490 C   0  0  0  0  0  0  0  0  0  0  0  0
   75.8530   21.2100  -19.0050 C   0  0  0  0  0  0  0  0  0  0  0  0
   75.5040   21.8770  -20.1860 C   0  0  0  0  0  0  0  0  0  0  0  0
   74.4630   22.9190  -20.1670 C   0  0  0  0  0  0  0  0  0  0  0  0
   73.1480   22.6230  -20.2160 C   0  0  0  0  0  0  0  0  0  0  0  0
   72.1820   23.7550  -20.2440 C   0  0  0  0  0  0  0  0  0  0  0  0
   70.9650   23.5960  -20.3070 O   0  0  0  0  0  0  0  0  0  0  0  0
   72.7380   25.1120  -20.1970 C   0  0  0  0  0  0  0  0  0  0  0  0
   71.9130   26.2430  -20.2280 C   0  0  0  0  0  0  0  0  0  0  0  0
   72.4660   27.5210  -20.1780 C   0  0  0  0  0  0  0  0  0  0  0  0
   73.8490   27.6570  -20.0940 C   0  0  0  0  0  0  0  0  0  0  0  0
   74.6800   26.5400  -20.0640 C   0  0  0  0  0  0  0  0  0  0  0  0
   74.1200   25.2630  -20.1180 C   0  0  0  0  0  0  0  0  0  0  0  0
   74.9850   24.2000  -20.0970 O   0  0  0  0  0  0  0  0  0  0  0  0
   74.4370   28.8860  -20.0430 O   0  0  0  0  0  0  0  0  0  0  0  0
   70.5480   26.1690  -20.3090 O   0  0  0  0  0  0  0  0  0  0  0  0
   72.6270   21.3410  -20.2400 O   0  0  0  0  0  0  0  0  0  0  0  0
   77.1370   19.5480  -17.8970 O   0  0  0  0  0  0  0  0  0  0  0  0
   78.3570   18.8510  -20.2120 O   0  0  0  0  0  0  0  0  0  0  0  0
   75.9030   22.0600  -22.3110 H   0  0  0  0  0  0  0  0  0  0  0  0
   77.5930   20.2730  -22.3630 H   0  0  0  0  0  0  0  0  0  0  0  0
   75.3830   21.4590  -18.0580 H   0  0  0  0  0  0  0  0  0  0  0  0
   71.8100   28.3850  -20.2050 H   0  0  0  0  0  0  0  0  0  0  0  0
   75.7570   26.6670  -19.9990 H   0  0  0  0  0  0  0  0  0  0  0  0
   73.9900   29.4190  -19.3630 H   0  0  0  0  0  0  0  0  0  0  0  0
   70.1750   26.4330  -19.4360 H   0  0  0  0  0  0  0  0  0  0  0  0
   73.3080   20.7260  -20.5610 H   0  0  0  0  0  0  0  0  0  0  0  0
   77.6740   18.7850  -18.1900 H   0  0  0  0  0  0  0  0  0  0  0  0
   78.0730   18.1950  -19.5530 H   0  0  0  0  0  0  0  0  0  0  0  0
  1  6  1  0  0  0  0
  2  1  2  0  0  0  0
  2  3  1  0  0  0  0
  3 22  1  0  0  0  0
  3  4  2  0  0  0  0
  4  5  1  0  0  0  0
  4 21  1  0  0  0  0
  5 25  1  0  0  0  0
  6  7  1  0  0  0  0
  6  5  2  0  0  0  0
  7 17  1  0  0  0  0
  8  7  2  0  0  0  0
  9  8  1  0  0  0  0
  9 11  1  0  0  0  0
 10  9  2  0  0  0  0
 11 16  1  0  0  0  0
 12 11  2  0  0  0  0
 12 13  1  0  0  0  0
 13 14  2  0  0  0  0
 14 15  1  0  0  0  0
 14 18  1  0  0  0  0
 15 27  1  0  0  0  0
 16 17  1  0  0  0  0
 16 15  2  0  0  0  0
 18 28  1  0  0  0  0
 19 12  1  0  0  0  0
 19 29  1  0  0  0  0
 20  8  1  0  0  0  0
 22 32  1  0  0  0  0
 23  1  1  0  0  0  0
 24  2  1  0  0  0  0
 26 13  1  0  0  0  0
 30 20  1  0  0  0  0
 31 21  1  0  0  0  0
M  END
>  <Pose>
1

>  <Score>
-4.11

$$$$
