
 OpenBabel10152114563D

 32 34  0  0  0  0  0  0  0  0999 V2000
   65.9730   30.1790   13.2960 C   0  0  0  0  0  0  0  0  0  0  0  0
   66.0880   29.3580   12.1700 C   0  0  0  0  0  0  0  0  0  0  0  0
   65.8590   27.9950   12.3040 C   0  0  0  0  0  0  0  0  0  0  0  0
   65.5300   27.4550   13.5450 C   0  0  0  0  0  0  0  0  0  0  0  0
   65.4130   28.2620   14.6690 C   0  0  0  0  0  0  0  0  0  0  0  0
   65.6230   29.6410   14.5490 C   0  0  0  0  0  0  0  0  0  0  0  0
   65.4670   30.5200   15.7210 C   0  0  0  0  0  0  0  0  0  0  0  0
   66.5240   31.0330   16.3810 C   0  0  0  0  0  0  0  0  0  0  0  0
   66.2550   31.8670   17.5830 C   0  0  0  0  0  0  0  0  0  0  0  0
   67.1460   32.3670   18.2660 O   0  0  0  0  0  0  0  0  0  0  0  0
   64.8500   32.0830   17.9480 C   0  0  0  0  0  0  0  0  0  0  0  0
   64.4930   32.8440   19.0680 C   0  0  0  0  0  0  0  0  0  0  0  0
   63.1520   33.0360   19.3900 C   0  0  0  0  0  0  0  0  0  0  0  0
   62.1730   32.4640   18.5840 C   0  0  0  0  0  0  0  0  0  0  0  0
   62.5150   31.7040   17.4680 C   0  0  0  0  0  0  0  0  0  0  0  0
   63.8610   31.5110   17.1530 C   0  0  0  0  0  0  0  0  0  0  0  0
   64.1410   30.7440   16.0520 O   0  0  0  0  0  0  0  0  0  0  0  0
   60.8470   32.6240   18.8590 O   0  0  0  0  0  0  0  0  0  0  0  0
   65.4130   33.4310   19.8960 O   0  0  0  0  0  0  0  0  0  0  0  0
   67.8470   30.8440   16.0210 O   0  0  0  0  0  0  0  0  0  0  0  0
   65.3100   26.1130   13.6660 O   0  0  0  0  0  0  0  0  0  0  0  0
   65.9430   27.1390   11.2410 O   0  0  0  0  0  0  0  0  0  0  0  0
   66.1590   31.2480   13.1910 H   0  0  0  0  0  0  0  0  0  0  0  0
   66.3540   29.7970   11.2140 H   0  0  0  0  0  0  0  0  0  0  0  0
   65.1540   27.8140   15.6250 H   0  0  0  0  0  0  0  0  0  0  0  0
   62.8950   33.6290   20.2630 H   0  0  0  0  0  0  0  0  0  0  0  0
   61.7360   31.2640   16.8520 H   0  0  0  0  0  0  0  0  0  0  0  0
   60.5350   33.4410   18.4320 H   0  0  0  0  0  0  0  0  0  0  0  0
   65.5810   34.3440   19.5670 H   0  0  0  0  0  0  0  0  0  0  0  0
   68.0500   31.3970   15.2480 H   0  0  0  0  0  0  0  0  0  0  0  0
   64.9860   25.9950   14.5820 H   0  0  0  0  0  0  0  0  0  0  0  0
   65.3050   27.4260   10.5650 H   0  0  0  0  0  0  0  0  0  0  0  0
  1  6  1  0  0  0  0
  2  3  1  0  0  0  0
  2  1  2  0  0  0  0
  3  4  2  0  0  0  0
  4 21  1  0  0  0  0
  4  5  1  0  0  0  0
  5 25  1  0  0  0  0
  6  5  2  0  0  0  0
  6  7  1  0  0  0  0
  7 17  1  0  0  0  0
  7  8  2  0  0  0  0
  8  9  1  0  0  0  0
  9 11  1  0  0  0  0
  9 10  2  0  0  0  0
 11 12  1  0  0  0  0
 12 13  2  0  0  0  0
 12 19  1  0  0  0  0
 13 26  1  0  0  0  0
 14 18  1  0  0  0  0
 14 13  1  0  0  0  0
 15 14  2  0  0  0  0
 16 15  1  0  0  0  0
 16 11  2  0  0  0  0
 17 16  1  0  0  0  0
 20  8  1  0  0  0  0
 21 31  1  0  0  0  0
 22  3  1  0  0  0  0
 23  1  1  0  0  0  0
 24  2  1  0  0  0  0
 27 15  1  0  0  0  0
 28 18  1  0  0  0  0
 29 19  1  0  0  0  0
 30 20  1  0  0  0  0
 32 22  1  0  0  0  0
M  END
>  <Pose>
2

>  <Score>
-4.46

$$$$

 OpenBabel10152114563D

 32 34  0  0  0  0  0  0  0  0999 V2000
   66.8350   28.4040   14.9100 C   0  0  0  0  0  0  0  0  0  0  0  0
   67.0540   27.7340   13.7020 C   0  0  0  0  0  0  0  0  0  0  0  0
   66.3000   28.0870   12.5900 C   0  0  0  0  0  0  0  0  0  0  0  0
   65.3340   29.0860   12.6820 C   0  0  0  0  0  0  0  0  0  0  0  0
   65.1100   29.7570   13.8780 C   0  0  0  0  0  0  0  0  0  0  0  0
   65.8730   29.4270   15.0040 C   0  0  0  0  0  0  0  0  0  0  0  0
   65.6760   30.1520   16.2700 C   0  0  0  0  0  0  0  0  0  0  0  0
   66.6560   30.8800   16.8430 C   0  0  0  0  0  0  0  0  0  0  0  0
   66.3660   31.5300   18.1490 C   0  0  0  0  0  0  0  0  0  0  0  0
   67.1940   32.2000   18.7630 O   0  0  0  0  0  0  0  0  0  0  0  0
   65.0220   31.3440   18.7080 C   0  0  0  0  0  0  0  0  0  0  0  0
   64.6540   31.9070   19.9360 C   0  0  0  0  0  0  0  0  0  0  0  0
   63.3710   31.7170   20.4420 C   0  0  0  0  0  0  0  0  0  0  0  0
   62.4590   30.9630   19.7090 C   0  0  0  0  0  0  0  0  0  0  0  0
   62.8130   30.3970   18.4870 C   0  0  0  0  0  0  0  0  0  0  0  0
   64.1020   30.5870   17.9880 C   0  0  0  0  0  0  0  0  0  0  0  0
   64.4000   29.9970   16.7870 O   0  0  0  0  0  0  0  0  0  0  0  0
   61.1910   30.7500   20.1630 O   0  0  0  0  0  0  0  0  0  0  0  0
   65.5090   32.6580   20.6980 O   0  0  0  0  0  0  0  0  0  0  0  0
   67.9160   31.0710   16.3020 O   0  0  0  0  0  0  0  0  0  0  0  0
   64.5970   29.4240   11.5830 O   0  0  0  0  0  0  0  0  0  0  0  0
   66.4730   27.4810   11.3770 O   0  0  0  0  0  0  0  0  0  0  0  0
   67.4210   28.1210   15.7840 H   0  0  0  0  0  0  0  0  0  0  0  0
   67.8050   26.9520   13.6530 H   0  0  0  0  0  0  0  0  0  0  0  0
   64.3500   30.5330   13.9210 H   0  0  0  0  0  0  0  0  0  0  0  0
   63.1050   32.1610   21.3960 H   0  0  0  0  0  0  0  0  0  0  0  0
   62.0870   29.8100   17.9310 H   0  0  0  0  0  0  0  0  0  0  0  0
   60.8420   29.9410   19.7500 H   0  0  0  0  0  0  0  0  0  0  0  0
   65.8530   33.3930   20.1380 H   0  0  0  0  0  0  0  0  0  0  0  0
   67.8390   31.5960   15.4890 H   0  0  0  0  0  0  0  0  0  0  0  0
   64.3850   28.5700   11.1550 H   0  0  0  0  0  0  0  0  0  0  0  0
   66.8630   28.1270   10.7640 H   0  0  0  0  0  0  0  0  0  0  0  0
  1  6  1  0  0  0  0
  1 23  1  0  0  0  0
  2  1  2  0  0  0  0
  3  4  2  0  0  0  0
  3  2  1  0  0  0  0
  4  5  1  0  0  0  0
  5 25  1  0  0  0  0
  5  6  2  0  0  0  0
  6  7  1  0  0  0  0
  7 17  1  0  0  0  0
  7  8  2  0  0  0  0
  8  9  1  0  0  0  0
  9 11  1  0  0  0  0
  9 10  2  0  0  0  0
 11 12  1  0  0  0  0
 12 13  2  0  0  0  0
 12 19  1  0  0  0  0
 13 26  1  0  0  0  0
 14 18  1  0  0  0  0
 14 13  1  0  0  0  0
 15 14  2  0  0  0  0
 16 15  1  0  0  0  0
 16 11  2  0  0  0  0
 17 16  1  0  0  0  0
 20  8  1  0  0  0  0
 21  4  1  0  0  0  0
 22  3  1  0  0  0  0
 24  2  1  0  0  0  0
 27 15  1  0  0  0  0
 28 18  1  0  0  0  0
 29 19  1  0  0  0  0
 30 20  1  0  0  0  0
 31 21  1  0  0  0  0
 32 22  1  0  0  0  0
M  END
>  <Pose>
1

>  <Score>
-4.39

$$$$

 OpenBabel10152114563D

 32 34  0  0  0  0  0  0  0  0999 V2000
   66.4570   27.6620   13.9510 C   0  0  0  0  0  0  0  0  0  0  0  0
   66.4780   26.8190   12.8360 C   0  0  0  0  0  0  0  0  0  0  0  0
   66.0110   27.2980   11.6200 C   0  0  0  0  0  0  0  0  0  0  0  0
   65.5200   28.5970   11.5170 C   0  0  0  0  0  0  0  0  0  0  0  0
   65.4940   29.4430   12.6180 C   0  0  0  0  0  0  0  0  0  0  0  0
   65.9780   28.9820   13.8490 C   0  0  0  0  0  0  0  0  0  0  0  0
   65.9950   29.8750   15.0190 C   0  0  0  0  0  0  0  0  0  0  0  0
   67.1430   30.2600   15.6140 C   0  0  0  0  0  0  0  0  0  0  0  0
   67.0430   31.1230   16.8230 C   0  0  0  0  0  0  0  0  0  0  0  0
   68.0250   31.5140   17.4490 O   0  0  0  0  0  0  0  0  0  0  0  0
   65.6970   31.5060   17.2640 C   0  0  0  0  0  0  0  0  0  0  0  0
   65.4970   32.3070   18.3950 C   0  0  0  0  0  0  0  0  0  0  0  0
   64.2090   32.6590   18.7910 C   0  0  0  0  0  0  0  0  0  0  0  0
   63.1250   32.2050   18.0460 C   0  0  0  0  0  0  0  0  0  0  0  0
   63.3100   31.4070   16.9200 C   0  0  0  0  0  0  0  0  0  0  0  0
   64.6030   31.0550   16.5310 C   0  0  0  0  0  0  0  0  0  0  0  0
   64.7270   30.2580   15.4230 O   0  0  0  0  0  0  0  0  0  0  0  0
   61.8450   32.5240   18.3930 O   0  0  0  0  0  0  0  0  0  0  0  0
   66.5260   32.7810   19.1640 O   0  0  0  0  0  0  0  0  0  0  0  0
   68.4110   29.9140   15.1820 O   0  0  0  0  0  0  0  0  0  0  0  0
   65.0600   29.0570   10.3160 O   0  0  0  0  0  0  0  0  0  0  0  0
   66.0160   26.5290   10.4900 O   0  0  0  0  0  0  0  0  0  0  0  0
   66.8170   27.2830   14.9070 H   0  0  0  0  0  0  0  0  0  0  0  0
   66.8570   25.8070   12.9390 H   0  0  0  0  0  0  0  0  0  0  0  0
   65.1060   30.4520   12.5090 H   0  0  0  0  0  0  0  0  0  0  0  0
   64.0750   33.2800   19.6710 H   0  0  0  0  0  0  0  0  0  0  0  0
   62.4510   31.0630   16.3520 H   0  0  0  0  0  0  0  0  0  0  0  0
   61.2460   31.8430   18.0420 H   0  0  0  0  0  0  0  0  0  0  0  0
   66.8770   33.5970   18.7370 H   0  0  0  0  0  0  0  0  0  0  0  0
   68.7310   30.5860   14.5580 H   0  0  0  0  0  0  0  0  0  0  0  0
   64.1060   29.2170   10.4590 H   0  0  0  0  0  0  0  0  0  0  0  0
   65.4880   26.9810    9.8090 H   0  0  0  0  0  0  0  0  0  0  0  0
  1 23  1  0  0  0  0
  2 24  1  0  0  0  0
  2  1  2  0  0  0  0
  3  2  1  0  0  0  0
  4  3  2  0  0  0  0
  4  5  1  0  0  0  0
  5  6  2  0  0  0  0
  6  1  1  0  0  0  0
  6  7  1  0  0  0  0
  7 17  1  0  0  0  0
  7  8  2  0  0  0  0
  8  9  1  0  0  0  0
  9 11  1  0  0  0  0
  9 10  2  0  0  0  0
 11 12  1  0  0  0  0
 12 13  2  0  0  0  0
 12 19  1  0  0  0  0
 13 26  1  0  0  0  0
 14 18  1  0  0  0  0
 14 13  1  0  0  0  0
 15 14  2  0  0  0  0
 16 15  1  0  0  0  0
 16 11  2  0  0  0  0
 17 16  1  0  0  0  0
 20  8  1  0  0  0  0
 21 31  1  0  0  0  0
 21  4  1  0  0  0  0
 22  3  1  0  0  0  0
 25  5  1  0  0  0  0
 27 15  1  0  0  0  0
 28 18  1  0  0  0  0
 29 19  1  0  0  0  0
 30 20  1  0  0  0  0
 32 22  1  0  0  0  0
M  END
>  <Pose>
1

>  <Score>
-4.28

$$$$

 OpenBabel10152114563D

 32 34  0  0  0  0  0  0  0  0999 V2000
   65.8840   30.3940   13.6940 C   0  0  0  0  0  0  0  0  0  0  0  0
   65.8710   29.6870   12.4870 C   0  0  0  0  0  0  0  0  0  0  0  0
   65.8020   28.3010   12.5190 C   0  0  0  0  0  0  0  0  0  0  0  0
   65.7570   27.6260   13.7360 C   0  0  0  0  0  0  0  0  0  0  0  0
   65.7690   28.3180   14.9400 C   0  0  0  0  0  0  0  0  0  0  0  0
   65.8200   29.7170   14.9260 C   0  0  0  0  0  0  0  0  0  0  0  0
   65.7950   30.4720   16.1910 C   0  0  0  0  0  0  0  0  0  0  0  0
   64.7120   31.1680   16.5930 C   0  0  0  0  0  0  0  0  0  0  0  0
   64.8130   31.9370   17.8620 C   0  0  0  0  0  0  0  0  0  0  0  0
   63.8920   32.6180   18.3080 O   0  0  0  0  0  0  0  0  0  0  0  0
   66.0830   31.8620   18.5930 C   0  0  0  0  0  0  0  0  0  0  0  0
   66.2800   32.5570   19.7930 C   0  0  0  0  0  0  0  0  0  0  0  0
   67.4950   32.4670   20.4680 C   0  0  0  0  0  0  0  0  0  0  0  0
   68.5080   31.6750   19.9360 C   0  0  0  0  0  0  0  0  0  0  0  0
   68.3240   30.9790   18.7430 C   0  0  0  0  0  0  0  0  0  0  0  0
   67.1070   31.0780   18.0690 C   0  0  0  0  0  0  0  0  0  0  0  0
   66.9850   30.3820   16.8940 O   0  0  0  0  0  0  0  0  0  0  0  0
   69.7140   31.5540   20.5600 O   0  0  0  0  0  0  0  0  0  0  0  0
   65.3200   33.3500   20.3620 O   0  0  0  0  0  0  0  0  0  0  0  0
   63.5090   31.2190   15.9110 O   0  0  0  0  0  0  0  0  0  0  0  0
   65.6920   26.2620   13.7560 O   0  0  0  0  0  0  0  0  0  0  0  0
   65.7740   27.5520   11.3760 O   0  0  0  0  0  0  0  0  0  0  0  0
   65.9460   31.4810   13.6680 H   0  0  0  0  0  0  0  0  0  0  0  0
   65.9170   30.2310   11.5490 H   0  0  0  0  0  0  0  0  0  0  0  0
   65.7310   27.7660   15.8750 H   0  0  0  0  0  0  0  0  0  0  0  0
   67.6290   33.0140   21.3960 H   0  0  0  0  0  0  0  0  0  0  0  0
   69.1280   30.3670   18.3440 H   0  0  0  0  0  0  0  0  0  0  0  0
   70.2160   30.8380   20.1360 H   0  0  0  0  0  0  0  0  0  0  0  0
   64.5500   33.3870   19.7470 H   0  0  0  0  0  0  0  0  0  0  0  0
   63.4330   30.4380   15.3380 H   0  0  0  0  0  0  0  0  0  0  0  0
   65.3070   26.0440   14.6280 H   0  0  0  0  0  0  0  0  0  0  0  0
   65.0990   27.9240   10.7810 H   0  0  0  0  0  0  0  0  0  0  0  0
  1  6  1  0  0  0  0
  2  3  1  0  0  0  0
  2  1  2  0  0  0  0
  3  4  2  0  0  0  0
  4 21  1  0  0  0  0
  4  5  1  0  0  0  0
  5 25  1  0  0  0  0
  6  5  2  0  0  0  0
  6  7  1  0  0  0  0
  7  8  2  0  0  0  0
  7 17  1  0  0  0  0
  8  9  1  0  0  0  0
  9 10  2  0  0  0  0
  9 11  1  0  0  0  0
 11 12  1  0  0  0  0
 12 19  1  0  0  0  0
 12 13  2  0  0  0  0
 13 26  1  0  0  0  0
 14 13  1  0  0  0  0
 14 18  1  0  0  0  0
 15 14  2  0  0  0  0
 16 11  2  0  0  0  0
 16 15  1  0  0  0  0
 17 16  1  0  0  0  0
 20  8  1  0  0  0  0
 21 31  1  0  0  0  0
 22  3  1  0  0  0  0
 23  1  1  0  0  0  0
 24  2  1  0  0  0  0
 27 15  1  0  0  0  0
 28 18  1  0  0  0  0
 29 19  1  0  0  0  0
 30 20  1  0  0  0  0
 32 22  1  0  0  0  0
M  END
>  <Pose>
1

>  <Score>
-4.19

$$$$
