
 OpenBabel10152114563D

 32 34  0  0  0  0  0  0  0  0999 V2000
   58.6450   37.2240   -7.0920 C   0  0  0  0  0  0  0  0  0  0  0  0
   60.0010   37.4630   -6.8430 C   0  0  0  0  0  0  0  0  0  0  0  0
   60.7570   36.4740   -6.2280 C   0  0  0  0  0  0  0  0  0  0  0  0
   60.1690   35.2670   -5.8560 C   0  0  0  0  0  0  0  0  0  0  0  0
   58.8240   35.0210   -6.0990 C   0  0  0  0  0  0  0  0  0  0  0  0
   58.0510   36.0000   -6.7350 C   0  0  0  0  0  0  0  0  0  0  0  0
   56.6320   35.7430   -7.0350 C   0  0  0  0  0  0  0  0  0  0  0  0
   56.2410   35.0400   -8.1180 C   0  0  0  0  0  0  0  0  0  0  0  0
   54.7810   34.8840   -8.3550 C   0  0  0  0  0  0  0  0  0  0  0  0
   54.3190   34.2790   -9.3200 O   0  0  0  0  0  0  0  0  0  0  0  0
   53.8740   35.4950   -7.3760 C   0  0  0  0  0  0  0  0  0  0  0  0
   52.4830   35.4120   -7.5160 C   0  0  0  0  0  0  0  0  0  0  0  0
   51.6440   35.9970   -6.5710 C   0  0  0  0  0  0  0  0  0  0  0  0
   52.2070   36.6630   -5.4860 C   0  0  0  0  0  0  0  0  0  0  0  0
   53.5890   36.7530   -5.3370 C   0  0  0  0  0  0  0  0  0  0  0  0
   54.4230   36.1680   -6.2900 C   0  0  0  0  0  0  0  0  0  0  0  0
   55.7750   36.2980   -6.0990 O   0  0  0  0  0  0  0  0  0  0  0  0
   51.4270   37.2510   -4.5350 O   0  0  0  0  0  0  0  0  0  0  0  0
   51.8750   34.7700   -8.5620 O   0  0  0  0  0  0  0  0  0  0  0  0
   57.1010   34.4490   -9.0270 O   0  0  0  0  0  0  0  0  0  0  0  0
   60.9210   34.3030   -5.2480 O   0  0  0  0  0  0  0  0  0  0  0  0
   62.0880   36.6390   -5.9670 O   0  0  0  0  0  0  0  0  0  0  0  0
   58.0510   38.0030   -7.5690 H   0  0  0  0  0  0  0  0  0  0  0  0
   60.4380   38.4130   -7.1330 H   0  0  0  0  0  0  0  0  0  0  0  0
   58.3910   34.0700   -5.7990 H   0  0  0  0  0  0  0  0  0  0  0  0
   50.5680   35.9230   -6.6970 H   0  0  0  0  0  0  0  0  0  0  0  0
   54.0090   37.2780   -4.4830 H   0  0  0  0  0  0  0  0  0  0  0  0
   52.0020   37.6280   -3.8470 H   0  0  0  0  0  0  0  0  0  0  0  0
   51.4430   33.9560   -8.2120 H   0  0  0  0  0  0  0  0  0  0  0  0
   56.9780   33.4850   -9.0020 H   0  0  0  0  0  0  0  0  0  0  0  0
   61.6440   34.7930   -4.8070 H   0  0  0  0  0  0  0  0  0  0  0  0
   62.3940   35.8810   -5.4390 H   0  0  0  0  0  0  0  0  0  0  0  0
  1  2  2  0  0  0  0
  1  6  1  0  0  0  0
  2  3  1  0  0  0  0
  3 22  1  0  0  0  0
  3  4  2  0  0  0  0
  4 21  1  0  0  0  0
  5  4  1  0  0  0  0
  5 25  1  0  0  0  0
  6  5  2  0  0  0  0
  7  6  1  0  0  0  0
  7 17  1  0  0  0  0
  8  7  2  0  0  0  0
  9  8  1  0  0  0  0
  9 11  1  0  0  0  0
 10  9  2  0  0  0  0
 11 16  1  0  0  0  0
 12 11  2  0  0  0  0
 12 13  1  0  0  0  0
 13 14  2  0  0  0  0
 14 15  1  0  0  0  0
 14 18  1  0  0  0  0
 15 27  1  0  0  0  0
 16 17  1  0  0  0  0
 16 15  2  0  0  0  0
 18 28  1  0  0  0  0
 19 29  1  0  0  0  0
 19 12  1  0  0  0  0
 20 30  1  0  0  0  0
 20  8  1  0  0  0  0
 21 31  1  0  0  0  0
 22 32  1  0  0  0  0
 23  1  1  0  0  0  0
 24  2  1  0  0  0  0
 26 13  1  0  0  0  0
M  END
>  <Pose>
1

>  <Score>
-5.94

$$$$

 OpenBabel10152114563D

 32 34  0  0  0  0  0  0  0  0999 V2000
   58.5670   37.2060   -7.2260 C   0  0  0  0  0  0  0  0  0  0  0  0
   59.8500   37.5720   -6.8060 C   0  0  0  0  0  0  0  0  0  0  0  0
   60.6300   36.6410   -6.1320 C   0  0  0  0  0  0  0  0  0  0  0  0
   60.1340   35.3660   -5.8700 C   0  0  0  0  0  0  0  0  0  0  0  0
   58.8620   34.9930   -6.2830 C   0  0  0  0  0  0  0  0  0  0  0  0
   58.0690   35.9130   -6.9800 C   0  0  0  0  0  0  0  0  0  0  0  0
   56.7320   35.5240   -7.4590 C   0  0  0  0  0  0  0  0  0  0  0  0
   55.6230   35.6870   -6.7090 C   0  0  0  0  0  0  0  0  0  0  0  0
   54.3290   35.2130   -7.2700 C   0  0  0  0  0  0  0  0  0  0  0  0
   53.2650   35.2970   -6.6620 O   0  0  0  0  0  0  0  0  0  0  0  0
   54.3570   34.6190   -8.6110 C   0  0  0  0  0  0  0  0  0  0  0  0
   53.1940   34.1350   -9.2220 C   0  0  0  0  0  0  0  0  0  0  0  0
   53.2470   33.5790  -10.4980 C   0  0  0  0  0  0  0  0  0  0  0  0
   54.4710   33.5150  -11.1580 C   0  0  0  0  0  0  0  0  0  0  0  0
   55.6350   33.9920  -10.5600 C   0  0  0  0  0  0  0  0  0  0  0  0
   55.5750   34.5440   -9.2800 C   0  0  0  0  0  0  0  0  0  0  0  0
   56.7530   34.9870   -8.7350 O   0  0  0  0  0  0  0  0  0  0  0  0
   54.5740   32.9800  -12.4080 O   0  0  0  0  0  0  0  0  0  0  0  0
   51.9640   34.1730   -8.6210 O   0  0  0  0  0  0  0  0  0  0  0  0
   55.5990   36.2660   -5.4520 O   0  0  0  0  0  0  0  0  0  0  0  0
   60.9090   34.4590   -5.2050 O   0  0  0  0  0  0  0  0  0  0  0  0
   61.8950   36.9310   -5.7060 O   0  0  0  0  0  0  0  0  0  0  0  0
   57.9530   37.9390   -7.7480 H   0  0  0  0  0  0  0  0  0  0  0  0
   60.2130   38.5740   -7.0110 H   0  0  0  0  0  0  0  0  0  0  0  0
   58.5020   33.9900   -6.0670 H   0  0  0  0  0  0  0  0  0  0  0  0
   52.3350   33.2080  -10.9540 H   0  0  0  0  0  0  0  0  0  0  0  0
   56.5810   33.9320  -11.0910 H   0  0  0  0  0  0  0  0  0  0  0  0
   55.1050   32.1670  -12.3590 H   0  0  0  0  0  0  0  0  0  0  0  0
   51.7960   33.2920   -8.2120 H   0  0  0  0  0  0  0  0  0  0  0  0
   56.4840   36.6050   -5.2390 H   0  0  0  0  0  0  0  0  0  0  0  0
   61.6320   34.9890   -4.8140 H   0  0  0  0  0  0  0  0  0  0  0  0
   62.2080   36.1970   -5.1490 H   0  0  0  0  0  0  0  0  0  0  0  0
  1  6  2  0  0  0  0
  1  2  1  0  0  0  0
  2  3  2  0  0  0  0
  3  4  1  0  0  0  0
  3 22  1  0  0  0  0
  4 21  1  0  0  0  0
  5 25  1  0  0  0  0
  5  4  2  0  0  0  0
  6  5  1  0  0  0  0
  7  6  1  0  0  0  0
  7  8  2  0  0  0  0
  8 20  1  0  0  0  0
  9  8  1  0  0  0  0
  9 10  2  0  0  0  0
 11  9  1  0  0  0  0
 12 19  1  0  0  0  0
 12 11  1  0  0  0  0
 13 12  2  0  0  0  0
 14 15  2  0  0  0  0
 14 13  1  0  0  0  0
 15 16  1  0  0  0  0
 16 17  1  0  0  0  0
 16 11  2  0  0  0  0
 17  7  1  0  0  0  0
 18 28  1  0  0  0  0
 18 14  1  0  0  0  0
 19 29  1  0  0  0  0
 20 30  1  0  0  0  0
 21 31  1  0  0  0  0
 22 32  1  0  0  0  0
 23  1  1  0  0  0  0
 24  2  1  0  0  0  0
 26 13  1  0  0  0  0
 27 15  1  0  0  0  0
M  END
>  <Pose>
3

>  <Score>
-5.78

$$$$

 OpenBabel10152114563D

 32 34  0  0  0  0  0  0  0  0999 V2000
   58.2310   36.9880   -6.8510 C   0  0  0  0  0  0  0  0  0  0  0  0
   59.4180   37.2690   -6.1660 C   0  0  0  0  0  0  0  0  0  0  0  0
   60.2120   36.2150   -5.7320 C   0  0  0  0  0  0  0  0  0  0  0  0
   59.8240   34.8980   -5.9680 C   0  0  0  0  0  0  0  0  0  0  0  0
   58.6470   34.6090   -6.6470 C   0  0  0  0  0  0  0  0  0  0  0  0
   57.8440   35.6590   -7.1070 C   0  0  0  0  0  0  0  0  0  0  0  0
   56.6130   35.3730   -7.8620 C   0  0  0  0  0  0  0  0  0  0  0  0
   55.4220   35.1910   -7.2550 C   0  0  0  0  0  0  0  0  0  0  0  0
   54.2510   34.8560   -8.1080 C   0  0  0  0  0  0  0  0  0  0  0  0
   53.1270   34.6530   -7.6550 O   0  0  0  0  0  0  0  0  0  0  0  0
   54.4790   34.7680   -9.5550 C   0  0  0  0  0  0  0  0  0  0  0  0
   53.4430   34.4500  -10.4420 C   0  0  0  0  0  0  0  0  0  0  0  0
   53.6850   34.3770  -11.8120 C   0  0  0  0  0  0  0  0  0  0  0  0
   54.9690   34.6260  -12.2860 C   0  0  0  0  0  0  0  0  0  0  0  0
   56.0080   34.9430  -11.4140 C   0  0  0  0  0  0  0  0  0  0  0  0
   55.7600   35.0110  -10.0430 C   0  0  0  0  0  0  0  0  0  0  0  0
   56.8210   35.3140   -9.2300 O   0  0  0  0  0  0  0  0  0  0  0  0
   55.2560   34.5670  -13.6180 O   0  0  0  0  0  0  0  0  0  0  0  0
   52.1610   34.1950  -10.0320 O   0  0  0  0  0  0  0  0  0  0  0  0
   55.2080   35.2950   -5.8910 O   0  0  0  0  0  0  0  0  0  0  0  0
   60.6110   33.8700   -5.5340 O   0  0  0  0  0  0  0  0  0  0  0  0
   61.3890   36.4220   -5.0690 O   0  0  0  0  0  0  0  0  0  0  0  0
   57.6060   37.8150   -7.1840 H   0  0  0  0  0  0  0  0  0  0  0  0
   59.6980   38.3020   -5.9850 H   0  0  0  0  0  0  0  0  0  0  0  0
   58.3700   33.5720   -6.8170 H   0  0  0  0  0  0  0  0  0  0  0  0
   52.8690   34.1270  -12.4820 H   0  0  0  0  0  0  0  0  0  0  0  0
   57.0040   35.1330  -11.8040 H   0  0  0  0  0  0  0  0  0  0  0  0
   55.6810   33.7140  -13.8090 H   0  0  0  0  0  0  0  0  0  0  0  0
   52.1590   33.3330   -9.5550 H   0  0  0  0  0  0  0  0  0  0  0  0
   55.6900   34.5840   -5.4370 H   0  0  0  0  0  0  0  0  0  0  0  0
   59.9810   33.1800   -5.2440 H   0  0  0  0  0  0  0  0  0  0  0  0
   61.3170   36.0230   -4.1840 H   0  0  0  0  0  0  0  0  0  0  0  0
  1  2  1  0  0  0  0
  2 24  1  0  0  0  0
  2  3  2  0  0  0  0
  3 22  1  0  0  0  0
  4  3  1  0  0  0  0
  4 21  1  0  0  0  0
  5  4  2  0  0  0  0
  6  1  2  0  0  0  0
  6  5  1  0  0  0  0
  7  8  2  0  0  0  0
  7  6  1  0  0  0  0
  8 20  1  0  0  0  0
  9 10  2  0  0  0  0
  9  8  1  0  0  0  0
 11  9  1  0  0  0  0
 12 19  1  0  0  0  0
 12 11  2  0  0  0  0
 13 12  1  0  0  0  0
 14 13  2  0  0  0  0
 14 15  1  0  0  0  0
 15 16  2  0  0  0  0
 16 11  1  0  0  0  0
 16 17  1  0  0  0  0
 17  7  1  0  0  0  0
 18 14  1  0  0  0  0
 19 29  1  0  0  0  0
 20 30  1  0  0  0  0
 21 31  1  0  0  0  0
 22 32  1  0  0  0  0
 23  1  1  0  0  0  0
 25  5  1  0  0  0  0
 26 13  1  0  0  0  0
 27 15  1  0  0  0  0
 28 18  1  0  0  0  0
M  END
>  <Pose>
1

>  <Score>
-5.05

$$$$
