
 OpenBabel10152114563D

 32 34  0  0  0  0  0  0  0  0999 V2000
   84.9130   24.2780   -0.4450 C   0  0  0  0  0  0  0  0  0  0  0  0
   84.2460   23.3460   -1.2460 C   0  0  0  0  0  0  0  0  0  0  0  0
   82.9130   23.5660   -1.5670 C   0  0  0  0  0  0  0  0  0  0  0  0
   82.2500   24.6940   -1.0890 C   0  0  0  0  0  0  0  0  0  0  0  0
   82.9040   25.6260   -0.2940 C   0  0  0  0  0  0  0  0  0  0  0  0
   84.2530   25.4290    0.0250 C   0  0  0  0  0  0  0  0  0  0  0  0
   84.9750   26.4240    0.8360 C   0  0  0  0  0  0  0  0  0  0  0  0
   84.7840   26.5450    2.1660 C   0  0  0  0  0  0  0  0  0  0  0  0
   85.5270   27.6180    2.8800 C   0  0  0  0  0  0  0  0  0  0  0  0
   85.4110   27.8240    4.0860 O   0  0  0  0  0  0  0  0  0  0  0  0
   86.4300   28.4550    2.0810 C   0  0  0  0  0  0  0  0  0  0  0  0
   87.1660   29.4960    2.6590 C   0  0  0  0  0  0  0  0  0  0  0  0
   88.0180   30.2740    1.8790 C   0  0  0  0  0  0  0  0  0  0  0  0
   88.1300   29.9990    0.5190 C   0  0  0  0  0  0  0  0  0  0  0  0
   87.4030   28.9660   -0.0670 C   0  0  0  0  0  0  0  0  0  0  0  0
   86.5470   28.1940    0.7190 C   0  0  0  0  0  0  0  0  0  0  0  0
   85.8460   27.1990    0.0880 O   0  0  0  0  0  0  0  0  0  0  0  0
   88.9520   30.7310   -0.2860 O   0  0  0  0  0  0  0  0  0  0  0  0
   87.0950   29.8110    3.9900 O   0  0  0  0  0  0  0  0  0  0  0  0
   83.9470   25.7400    2.9190 O   0  0  0  0  0  0  0  0  0  0  0  0
   80.9390   24.8990   -1.4090 O   0  0  0  0  0  0  0  0  0  0  0  0
   82.2070   22.7010   -2.3550 O   0  0  0  0  0  0  0  0  0  0  0  0
   85.9570   24.1020   -0.1870 H   0  0  0  0  0  0  0  0  0  0  0  0
   84.7770   22.4690   -1.6000 H   0  0  0  0  0  0  0  0  0  0  0  0
   82.3630   26.4970    0.0640 H   0  0  0  0  0  0  0  0  0  0  0  0
   88.5790   31.0780    2.3450 H   0  0  0  0  0  0  0  0  0  0  0  0
   87.5030   28.7680   -1.1310 H   0  0  0  0  0  0  0  0  0  0  0  0
   89.7590   30.2180   -0.4590 H   0  0  0  0  0  0  0  0  0  0  0  0
   86.6280   30.6750    4.0750 H   0  0  0  0  0  0  0  0  0  0  0  0
   83.2370   26.2850    3.2990 H   0  0  0  0  0  0  0  0  0  0  0  0
   80.4870   25.0100   -0.5490 H   0  0  0  0  0  0  0  0  0  0  0  0
   82.7310   21.8880   -2.4650 H   0  0  0  0  0  0  0  0  0  0  0  0
  1 23  1  0  0  0  0
  1  6  1  0  0  0  0
  2  1  2  0  0  0  0
  3  2  1  0  0  0  0
  3  4  2  0  0  0  0
  4  5  1  0  0  0  0
  5  6  2  0  0  0  0
  5 25  1  0  0  0  0
  6  7  1  0  0  0  0
  7  8  2  0  0  0  0
  8  9  1  0  0  0  0
  8 20  1  0  0  0  0
  9 10  2  0  0  0  0
 11 12  1  0  0  0  0
 11  9  1  0  0  0  0
 12 19  1  0  0  0  0
 13 26  1  0  0  0  0
 13 12  2  0  0  0  0
 14 13  1  0  0  0  0
 15 14  2  0  0  0  0
 15 16  1  0  0  0  0
 16 11  2  0  0  0  0
 17 16  1  0  0  0  0
 17  7  1  0  0  0  0
 18 14  1  0  0  0  0
 19 29  1  0  0  0  0
 20 30  1  0  0  0  0
 21  4  1  0  0  0  0
 21 31  1  0  0  0  0
 22  3  1  0  0  0  0
 24  2  1  0  0  0  0
 27 15  1  0  0  0  0
 28 18  1  0  0  0  0
 32 22  1  0  0  0  0
M  END
>  <Pose>
2

>  <Score>
-5.31

$$$$

 OpenBabel10152114563D

 32 34  0  0  0  0  0  0  0  0999 V2000
   89.8250   31.2410   -0.0820 C   0  0  0  0  0  0  0  0  0  0  0  0
   90.6440   32.2730   -0.5510 C   0  0  0  0  0  0  0  0  0  0  0  0
   90.2390   33.5890   -0.3720 C   0  0  0  0  0  0  0  0  0  0  0  0
   89.0280   33.8740    0.2560 C   0  0  0  0  0  0  0  0  0  0  0  0
   88.2080   32.8560    0.7250 C   0  0  0  0  0  0  0  0  0  0  0  0
   88.6100   31.5240    0.5700 C   0  0  0  0  0  0  0  0  0  0  0  0
   87.7720   30.4320    1.0940 C   0  0  0  0  0  0  0  0  0  0  0  0
   87.2170   29.5020    0.2910 C   0  0  0  0  0  0  0  0  0  0  0  0
   86.3460   28.4720    0.9190 C   0  0  0  0  0  0  0  0  0  0  0  0
   85.7780   27.5920    0.2760 O   0  0  0  0  0  0  0  0  0  0  0  0
   86.1730   28.5380    2.3750 C   0  0  0  0  0  0  0  0  0  0  0  0
   85.3650   27.6200    3.0580 C   0  0  0  0  0  0  0  0  0  0  0  0
   85.2200   27.7030    4.4410 C   0  0  0  0  0  0  0  0  0  0  0  0
   85.8910   28.7070    5.1330 C   0  0  0  0  0  0  0  0  0  0  0  0
   86.6960   29.6260    4.4640 C   0  0  0  0  0  0  0  0  0  0  0  0
   86.8330   29.5410    3.0780 C   0  0  0  0  0  0  0  0  0  0  0  0
   87.6280   30.4780    2.4710 O   0  0  0  0  0  0  0  0  0  0  0  0
   85.7810   28.8280    6.4870 O   0  0  0  0  0  0  0  0  0  0  0  0
   84.6830   26.6130    2.4290 O   0  0  0  0  0  0  0  0  0  0  0  0
   87.4000   29.4310   -1.0790 O   0  0  0  0  0  0  0  0  0  0  0  0
   88.6390   35.1720    0.4240 O   0  0  0  0  0  0  0  0  0  0  0  0
   90.9980   34.6430   -0.7960 O   0  0  0  0  0  0  0  0  0  0  0  0
   90.1400   30.2090   -0.2290 H   0  0  0  0  0  0  0  0  0  0  0  0
   91.5790   32.0300   -1.0460 H   0  0  0  0  0  0  0  0  0  0  0  0
   87.2700   33.1080    1.2130 H   0  0  0  0  0  0  0  0  0  0  0  0
   84.5890   26.9830    4.9520 H   0  0  0  0  0  0  0  0  0  0  0  0
   87.2100   30.4040    5.0220 H   0  0  0  0  0  0  0  0  0  0  0  0
   84.9040   29.1930    6.6990 H   0  0  0  0  0  0  0  0  0  0  0  0
   83.7200   26.7580    2.5760 H   0  0  0  0  0  0  0  0  0  0  0  0
   86.5950   29.7450   -1.5250 H   0  0  0  0  0  0  0  0  0  0  0  0
   89.0420   35.4450    1.2720 H   0  0  0  0  0  0  0  0  0  0  0  0
   90.4960   35.4630   -0.6460 H   0  0  0  0  0  0  0  0  0  0  0  0
  1  6  1  0  0  0  0
  2  3  1  0  0  0  0
  2  1  2  0  0  0  0
  3  4  2  0  0  0  0
  4 21  1  0  0  0  0
  4  5  1  0  0  0  0
  5 25  1  0  0  0  0
  6  5  2  0  0  0  0
  6  7  1  0  0  0  0
  7 17  1  0  0  0  0
  8  9  1  0  0  0  0
  8  7  2  0  0  0  0
  9 11  1  0  0  0  0
 10  9  2  0  0  0  0
 11 12  2  0  0  0  0
 11 16  1  0  0  0  0
 12 13  1  0  0  0  0
 13 26  1  0  0  0  0
 13 14  2  0  0  0  0
 14 18  1  0  0  0  0
 15 27  1  0  0  0  0
 15 14  1  0  0  0  0
 16 15  2  0  0  0  0
 17 16  1  0  0  0  0
 18 28  1  0  0  0  0
 19 29  1  0  0  0  0
 19 12  1  0  0  0  0
 20  8  1  0  0  0  0
 21 31  1  0  0  0  0
 22 32  1  0  0  0  0
 22  3  1  0  0  0  0
 23  1  1  0  0  0  0
 24  2  1  0  0  0  0
 30 20  1  0  0  0  0
M  END
>  <Pose>
2

>  <Score>
-5.23

$$$$

 OpenBabel10152114563D

 32 34  0  0  0  0  0  0  0  0999 V2000
   83.4200   24.2370   -0.5560 C   0  0  0  0  0  0  0  0  0  0  0  0
   82.5490   23.6480   -1.4780 C   0  0  0  0  0  0  0  0  0  0  0  0
   81.5580   24.4260   -2.0610 C   0  0  0  0  0  0  0  0  0  0  0  0
   81.4290   25.7710   -1.7220 C   0  0  0  0  0  0  0  0  0  0  0  0
   82.2890   26.3650   -0.8080 C   0  0  0  0  0  0  0  0  0  0  0  0
   83.3060   25.6000   -0.2250 C   0  0  0  0  0  0  0  0  0  0  0  0
   84.2510   26.2210    0.7190 C   0  0  0  0  0  0  0  0  0  0  0  0
   84.1630   26.0370    2.0520 C   0  0  0  0  0  0  0  0  0  0  0  0
   85.1390   26.7520    2.9180 C   0  0  0  0  0  0  0  0  0  0  0  0
   85.1340   26.6680    4.1440 O   0  0  0  0  0  0  0  0  0  0  0  0
   86.1390   27.5920    2.2490 C   0  0  0  0  0  0  0  0  0  0  0  0
   87.0950   28.3130    2.9760 C   0  0  0  0  0  0  0  0  0  0  0  0
   88.0350   29.1000    2.3160 C   0  0  0  0  0  0  0  0  0  0  0  0
   88.0140   29.1580    0.9260 C   0  0  0  0  0  0  0  0  0  0  0  0
   87.0690   28.4460    0.1920 C   0  0  0  0  0  0  0  0  0  0  0  0
   86.1260   27.6630    0.8590 C   0  0  0  0  0  0  0  0  0  0  0  0
   85.2110   26.9940    0.0870 O   0  0  0  0  0  0  0  0  0  0  0  0
   88.9150   29.9140    0.2360 O   0  0  0  0  0  0  0  0  0  0  0  0
   87.1620   28.2930    4.3440 O   0  0  0  0  0  0  0  0  0  0  0  0
   83.2300   25.2280    2.6770 O   0  0  0  0  0  0  0  0  0  0  0  0
   80.4490   26.5270   -2.3000 O   0  0  0  0  0  0  0  0  0  0  0  0
   80.6830   23.9150   -2.9780 O   0  0  0  0  0  0  0  0  0  0  0  0
   84.1930   23.6240   -0.0940 H   0  0  0  0  0  0  0  0  0  0  0  0
   82.6610   22.5960   -1.7210 H   0  0  0  0  0  0  0  0  0  0  0  0
   82.1660   27.4170   -0.5640 H   0  0  0  0  0  0  0  0  0  0  0  0
   88.7670   29.6520    2.8980 H   0  0  0  0  0  0  0  0  0  0  0  0
   87.0680   28.5050   -0.8930 H   0  0  0  0  0  0  0  0  0  0  0  0
   89.8120   29.6030    0.4470 H   0  0  0  0  0  0  0  0  0  0  0  0
   86.6410   29.0560    4.6870 H   0  0  0  0  0  0  0  0  0  0  0  0
   82.7900   25.7330    3.3810 H   0  0  0  0  0  0  0  0  0  0  0  0
   80.2660   27.2350   -1.6510 H   0  0  0  0  0  0  0  0  0  0  0  0
   80.1150   24.6380   -3.2960 H   0  0  0  0  0  0  0  0  0  0  0  0
  1  6  1  0  0  0  0
  1 23  1  0  0  0  0
  2  1  2  0  0  0  0
  3  4  2  0  0  0  0
  3  2  1  0  0  0  0
  4  5  1  0  0  0  0
  5 25  1  0  0  0  0
  5  6  2  0  0  0  0
  6  7  1  0  0  0  0
  7  8  2  0  0  0  0
  8 20  1  0  0  0  0
  8  9  1  0  0  0  0
  9 10  2  0  0  0  0
 11  9  1  0  0  0  0
 11 12  1  0  0  0  0
 12 19  1  0  0  0  0
 13 26  1  0  0  0  0
 13 12  2  0  0  0  0
 14 13  1  0  0  0  0
 15 16  1  0  0  0  0
 15 14  2  0  0  0  0
 16 11  2  0  0  0  0
 17  7  1  0  0  0  0
 17 16  1  0  0  0  0
 18 28  1  0  0  0  0
 18 14  1  0  0  0  0
 19 29  1  0  0  0  0
 20 30  1  0  0  0  0
 21  4  1  0  0  0  0
 21 31  1  0  0  0  0
 22  3  1  0  0  0  0
 24  2  1  0  0  0  0
 27 15  1  0  0  0  0
 32 22  1  0  0  0  0
M  END
>  <Pose>
1

>  <Score>
-5.16

$$$$
