
 OpenBabel10152114563D

 32 34  0  0  0  0  0  0  0  0999 V2000
   82.7010   19.0430   -0.2620 C   0  0  0  0  0  0  0  0  0  0  0  0
   82.8630   17.9990    0.6540 C   0  0  0  0  0  0  0  0  0  0  0  0
   82.0180   17.9280    1.7530 C   0  0  0  0  0  0  0  0  0  0  0  0
   81.0300   18.8910    1.9440 C   0  0  0  0  0  0  0  0  0  0  0  0
   80.8600   19.9320    1.0400 C   0  0  0  0  0  0  0  0  0  0  0  0
   81.6910   20.0080   -0.0840 C   0  0  0  0  0  0  0  0  0  0  0  0
   81.5030   21.0820   -1.0730 C   0  0  0  0  0  0  0  0  0  0  0  0
   81.7250   22.3790   -0.7780 C   0  0  0  0  0  0  0  0  0  0  0  0
   81.4530   23.3890   -1.8370 C   0  0  0  0  0  0  0  0  0  0  0  0
   81.6050   24.5960   -1.6670 O   0  0  0  0  0  0  0  0  0  0  0  0
   80.9820   22.8900   -3.1340 C   0  0  0  0  0  0  0  0  0  0  0  0
   80.6900   23.7600   -4.1920 C   0  0  0  0  0  0  0  0  0  0  0  0
   80.2470   23.2600   -5.4140 C   0  0  0  0  0  0  0  0  0  0  0  0
   80.1010   21.8850   -5.5700 C   0  0  0  0  0  0  0  0  0  0  0  0
   80.3870   21.0100   -4.5250 C   0  0  0  0  0  0  0  0  0  0  0  0
   80.8260   21.5170   -3.3020 C   0  0  0  0  0  0  0  0  0  0  0  0
   81.0810   20.6110   -2.3050 O   0  0  0  0  0  0  0  0  0  0  0  0
   79.6710   21.3490   -6.7470 O   0  0  0  0  0  0  0  0  0  0  0  0
   80.8160   25.1200   -4.0950 O   0  0  0  0  0  0  0  0  0  0  0  0
   82.1890   22.8440    0.4400 O   0  0  0  0  0  0  0  0  0  0  0  0
   80.2060   18.8140    3.0300 O   0  0  0  0  0  0  0  0  0  0  0  0
   82.1160   16.9270    2.6780 O   0  0  0  0  0  0  0  0  0  0  0  0
   83.3690   19.1010   -1.1210 H   0  0  0  0  0  0  0  0  0  0  0  0
   83.6460   17.2640    0.4920 H   0  0  0  0  0  0  0  0  0  0  0  0
   80.0800   20.6680    1.2130 H   0  0  0  0  0  0  0  0  0  0  0  0
   80.0240   23.9520   -6.2210 H   0  0  0  0  0  0  0  0  0  0  0  0
   80.2650   19.9390   -4.6670 H   0  0  0  0  0  0  0  0  0  0  0  0
   80.3020   20.6650   -7.0290 H   0  0  0  0  0  0  0  0  0  0  0  0
   80.1800   25.5320   -4.7250 H   0  0  0  0  0  0  0  0  0  0  0  0
   81.4700   23.3060    0.9010 H   0  0  0  0  0  0  0  0  0  0  0  0
   79.3590   18.4750    2.6760 H   0  0  0  0  0  0  0  0  0  0  0  0
   81.3260   16.3630    2.6060 H   0  0  0  0  0  0  0  0  0  0  0  0
  1  6  2  0  0  0  0
  1  2  1  0  0  0  0
  2  3  2  0  0  0  0
  3  4  1  0  0  0  0
  3 22  1  0  0  0  0
  4 21  1  0  0  0  0
  5 25  1  0  0  0  0
  5  4  2  0  0  0  0
  6  5  1  0  0  0  0
  7  8  2  0  0  0  0
  7  6  1  0  0  0  0
  8 20  1  0  0  0  0
  9 10  2  0  0  0  0
  9  8  1  0  0  0  0
 11  9  1  0  0  0  0
 12 19  1  0  0  0  0
 12 11  2  0  0  0  0
 13 12  1  0  0  0  0
 14 13  2  0  0  0  0
 14 15  1  0  0  0  0
 15 16  2  0  0  0  0
 16 11  1  0  0  0  0
 16 17  1  0  0  0  0
 17  7  1  0  0  0  0
 18 14  1  0  0  0  0
 20 30  1  0  0  0  0
 23  1  1  0  0  0  0
 24  2  1  0  0  0  0
 26 13  1  0  0  0  0
 27 15  1  0  0  0  0
 28 18  1  0  0  0  0
 29 19  1  0  0  0  0
 31 21  1  0  0  0  0
 32 22  1  0  0  0  0
M  END
>  <Pose>
3

>  <Score>
-6.35

$$$$

 OpenBabel10152114563D

 32 34  0  0  0  0  0  0  0  0999 V2000
   80.2780   22.2010    0.3370 C   0  0  0  0  0  0  0  0  0  0  0  0
   81.2780   21.8350   -0.5690 C   0  0  0  0  0  0  0  0  0  0  0  0
   80.9280   21.1270   -1.7110 C   0  0  0  0  0  0  0  0  0  0  0  0
   79.5990   20.7790   -1.9430 C   0  0  0  0  0  0  0  0  0  0  0  0
   78.5980   21.1380   -1.0500 C   0  0  0  0  0  0  0  0  0  0  0  0
   78.9310   21.8680    0.0980 C   0  0  0  0  0  0  0  0  0  0  0  0
   77.8790   22.2900    1.0380 C   0  0  0  0  0  0  0  0  0  0  0  0
   77.3620   23.5360    1.0270 C   0  0  0  0  0  0  0  0  0  0  0  0
   76.3410   23.8730    2.0550 C   0  0  0  0  0  0  0  0  0  0  0  0
   75.8200   24.9820    2.1440 O   0  0  0  0  0  0  0  0  0  0  0  0
   75.9590   22.8120    2.9940 C   0  0  0  0  0  0  0  0  0  0  0  0
   75.0130   23.0320    4.0030 C   0  0  0  0  0  0  0  0  0  0  0  0
   74.6660   22.0070    4.8790 C   0  0  0  0  0  0  0  0  0  0  0  0
   75.2690   20.7610    4.7360 C   0  0  0  0  0  0  0  0  0  0  0  0
   76.2110   20.5300    3.7370 C   0  0  0  0  0  0  0  0  0  0  0  0
   76.5580   21.5620    2.8650 C   0  0  0  0  0  0  0  0  0  0  0  0
   77.5000   21.2820    1.9090 O   0  0  0  0  0  0  0  0  0  0  0  0
   74.9610   19.7260    5.5690 O   0  0  0  0  0  0  0  0  0  0  0  0
   74.3880   24.2360    4.1900 O   0  0  0  0  0  0  0  0  0  0  0  0
   77.7110   24.5270    0.1270 O   0  0  0  0  0  0  0  0  0  0  0  0
   79.2660   20.0810   -3.0680 O   0  0  0  0  0  0  0  0  0  0  0  0
   81.8550   20.7500   -2.6410 O   0  0  0  0  0  0  0  0  0  0  0  0
   80.5540   22.7500    1.2360 H   0  0  0  0  0  0  0  0  0  0  0  0
   82.3090   22.1080   -0.3650 H   0  0  0  0  0  0  0  0  0  0  0  0
   77.5700   20.8540   -1.2570 H   0  0  0  0  0  0  0  0  0  0  0  0
   73.9320   22.1980    5.6560 H   0  0  0  0  0  0  0  0  0  0  0  0
   76.6720   19.5500    3.6420 H   0  0  0  0  0  0  0  0  0  0  0  0
   74.7570   18.9410    5.0320 H   0  0  0  0  0  0  0  0  0  0  0  0
   73.8910   24.4530    3.3670 H   0  0  0  0  0  0  0  0  0  0  0  0
   76.9430   25.1030   -0.0280 H   0  0  0  0  0  0  0  0  0  0  0  0
   78.3710   20.3990   -3.3030 H   0  0  0  0  0  0  0  0  0  0  0  0
   82.7390   20.9710   -2.3010 H   0  0  0  0  0  0  0  0  0  0  0  0
  1 23  1  0  0  0  0
  2 24  1  0  0  0  0
  2  1  2  0  0  0  0
  3  2  1  0  0  0  0
  4  3  2  0  0  0  0
  4  5  1  0  0  0  0
  5  6  2  0  0  0  0
  6  1  1  0  0  0  0
  6  7  1  0  0  0  0
  7 17  1  0  0  0  0
  8  7  2  0  0  0  0
  8  9  1  0  0  0  0
  9 10  2  0  0  0  0
  9 11  1  0  0  0  0
 11 12  1  0  0  0  0
 12 19  1  0  0  0  0
 12 13  2  0  0  0  0
 13 26  1  0  0  0  0
 14 13  1  0  0  0  0
 14 18  1  0  0  0  0
 15 14  2  0  0  0  0
 16 11  2  0  0  0  0
 16 15  1  0  0  0  0
 17 16  1  0  0  0  0
 20  8  1  0  0  0  0
 21  4  1  0  0  0  0
 22 32  1  0  0  0  0
 22  3  1  0  0  0  0
 25  5  1  0  0  0  0
 27 15  1  0  0  0  0
 28 18  1  0  0  0  0
 29 19  1  0  0  0  0
 30 20  1  0  0  0  0
 31 21  1  0  0  0  0
M  END
>  <Pose>
1

>  <Score>
-5.97

$$$$

 OpenBabel10152114563D

 32 34  0  0  0  0  0  0  0  0999 V2000
   79.9830   20.8220   -3.8780 C   0  0  0  0  0  0  0  0  0  0  0  0
   80.1380   20.9560   -5.2620 C   0  0  0  0  0  0  0  0  0  0  0  0
   80.3590   22.2180   -5.7960 C   0  0  0  0  0  0  0  0  0  0  0  0
   80.4150   23.3340   -4.9650 C   0  0  0  0  0  0  0  0  0  0  0  0
   80.2610   23.2120   -3.5900 C   0  0  0  0  0  0  0  0  0  0  0  0
   80.0560   21.9450   -3.0320 C   0  0  0  0  0  0  0  0  0  0  0  0
   79.9290   21.7890   -1.5740 C   0  0  0  0  0  0  0  0  0  0  0  0
   80.9150   21.2640   -0.8170 C   0  0  0  0  0  0  0  0  0  0  0  0
   80.6610   21.1040    0.6400 C   0  0  0  0  0  0  0  0  0  0  0  0
   81.4840   20.6200    1.4140 O   0  0  0  0  0  0  0  0  0  0  0  0
   79.3590   21.5510    1.1480 C   0  0  0  0  0  0  0  0  0  0  0  0
   79.0220   21.4350    2.5020 C   0  0  0  0  0  0  0  0  0  0  0  0
   77.7800   21.8710    2.9580 C   0  0  0  0  0  0  0  0  0  0  0  0
   76.8820   22.4240    2.0510 C   0  0  0  0  0  0  0  0  0  0  0  0
   77.2050   22.5440    0.7020 C   0  0  0  0  0  0  0  0  0  0  0  0
   78.4490   22.1020    0.2500 C   0  0  0  0  0  0  0  0  0  0  0  0
   78.7100   22.2330   -1.0890 O   0  0  0  0  0  0  0  0  0  0  0  0
   75.6550   22.8650    2.4500 O   0  0  0  0  0  0  0  0  0  0  0  0
   79.8660   20.8990    3.4380 O   0  0  0  0  0  0  0  0  0  0  0  0
   82.1490   20.8620   -1.2970 O   0  0  0  0  0  0  0  0  0  0  0  0
   80.6300   24.5710   -5.5020 O   0  0  0  0  0  0  0  0  0  0  0  0
   80.5320   22.4150   -7.1380 O   0  0  0  0  0  0  0  0  0  0  0  0
   79.8030   19.8320   -3.4600 H   0  0  0  0  0  0  0  0  0  0  0  0
   80.0830   20.0740   -5.8930 H   0  0  0  0  0  0  0  0  0  0  0  0
   80.3100   24.1000   -2.9660 H   0  0  0  0  0  0  0  0  0  0  0  0
   77.5370   21.7700    4.0110 H   0  0  0  0  0  0  0  0  0  0  0  0
   76.4900   22.9790    0.0090 H   0  0  0  0  0  0  0  0  0  0  0  0
   75.1440   23.1250    1.6640 H   0  0  0  0  0  0  0  0  0  0  0  0
   79.7420   19.9210    3.4370 H   0  0  0  0  0  0  0  0  0  0  0  0
   82.5880   21.6180   -1.7220 H   0  0  0  0  0  0  0  0  0  0  0  0
   79.8780   25.1130   -5.1870 H   0  0  0  0  0  0  0  0  0  0  0  0
   80.9850   21.6370   -7.5070 H   0  0  0  0  0  0  0  0  0  0  0  0
  1 23  1  0  0  0  0
  1  6  1  0  0  0  0
  2  1  2  0  0  0  0
  3  2  1  0  0  0  0
  3  4  2  0  0  0  0
  4  5  1  0  0  0  0
  5  6  2  0  0  0  0
  5 25  1  0  0  0  0
  6  7  1  0  0  0  0
  7 17  1  0  0  0  0
  7  8  2  0  0  0  0
  8  9  1  0  0  0  0
  9 11  1  0  0  0  0
  9 10  2  0  0  0  0
 11 12  1  0  0  0  0
 12 13  2  0  0  0  0
 12 19  1  0  0  0  0
 13 26  1  0  0  0  0
 14 18  1  0  0  0  0
 14 13  1  0  0  0  0
 15 14  2  0  0  0  0
 16 15  1  0  0  0  0
 16 11  2  0  0  0  0
 17 16  1  0  0  0  0
 20  8  1  0  0  0  0
 21 31  1  0  0  0  0
 21  4  1  0  0  0  0
 22  3  1  0  0  0  0
 24  2  1  0  0  0  0
 27 15  1  0  0  0  0
 28 18  1  0  0  0  0
 29 19  1  0  0  0  0
 30 20  1  0  0  0  0
 32 22  1  0  0  0  0
M  END
>  <Pose>
1

>  <Score>
-5.76

$$$$
