
 OpenBabel10152114563D

 32 34  0  0  0  0  0  0  0  0999 V2000
   49.4680   13.0940    5.8900 C   0  0  0  0  0  0  0  0  0  0  0  0
   49.1140   12.7710    4.5760 C   0  0  0  0  0  0  0  0  0  0  0  0
   49.5910   11.5910    4.0210 C   0  0  0  0  0  0  0  0  0  0  0  0
   50.4180   10.7490    4.7610 C   0  0  0  0  0  0  0  0  0  0  0  0
   50.7750   11.0610    6.0660 C   0  0  0  0  0  0  0  0  0  0  0  0
   50.2880   12.2380    6.6480 C   0  0  0  0  0  0  0  0  0  0  0  0
   50.6240   12.5680    8.0430 C   0  0  0  0  0  0  0  0  0  0  0  0
   51.8510   12.9950    8.4060 C   0  0  0  0  0  0  0  0  0  0  0  0
   52.0980   13.2510    9.8510 C   0  0  0  0  0  0  0  0  0  0  0  0
   53.1840   13.6250   10.2890 O   0  0  0  0  0  0  0  0  0  0  0  0
   50.9750   13.0370   10.7710 C   0  0  0  0  0  0  0  0  0  0  0  0
   51.1100   13.2420   12.1500 C   0  0  0  0  0  0  0  0  0  0  0  0
   50.0270   13.0350   13.0020 C   0  0  0  0  0  0  0  0  0  0  0  0
   48.8120   12.6240   12.4630 C   0  0  0  0  0  0  0  0  0  0  0  0
   48.6660   12.4170   11.0940 C   0  0  0  0  0  0  0  0  0  0  0  0
   49.7550   12.6220   10.2470 C   0  0  0  0  0  0  0  0  0  0  0  0
   49.5590   12.3900    8.9100 O   0  0  0  0  0  0  0  0  0  0  0  0
   47.7230   12.4090   13.2560 O   0  0  0  0  0  0  0  0  0  0  0  0
   52.2810   13.6460   12.7340 O   0  0  0  0  0  0  0  0  0  0  0  0
   52.9010   13.2150    7.5320 O   0  0  0  0  0  0  0  0  0  0  0  0
   50.8830    9.5920    4.2040 O   0  0  0  0  0  0  0  0  0  0  0  0
   49.2730   11.2100    2.7470 O   0  0  0  0  0  0  0  0  0  0  0  0
   49.0990   14.0240    6.3220 H   0  0  0  0  0  0  0  0  0  0  0  0
   48.4760   13.4450    4.0130 H   0  0  0  0  0  0  0  0  0  0  0  0
   51.4200   10.3850    6.6200 H   0  0  0  0  0  0  0  0  0  0  0  0
   50.1520   13.1980   14.0670 H   0  0  0  0  0  0  0  0  0  0  0  0
   47.7080   12.0950   10.6930 H   0  0  0  0  0  0  0  0  0  0  0  0
   47.9540   12.6360   14.1730 H   0  0  0  0  0  0  0  0  0  0  0  0
   52.2030   13.5030   13.7060 H   0  0  0  0  0  0  0  0  0  0  0  0
   52.5500   13.5430    6.6870 H   0  0  0  0  0  0  0  0  0  0  0  0
   50.7000    9.6850    3.2480 H   0  0  0  0  0  0  0  0  0  0  0  0
   49.9240   11.6000    2.1380 H   0  0  0  0  0  0  0  0  0  0  0  0
  1 23  1  0  0  0  0
  1  6  1  0  0  0  0
  2  1  2  0  0  0  0
  3  2  1  0  0  0  0
  3  4  2  0  0  0  0
  4  5  1  0  0  0  0
  5 25  1  0  0  0  0
  5  6  2  0  0  0  0
  6  7  1  0  0  0  0
  7  8  2  0  0  0  0
  7 17  1  0  0  0  0
  8  9  1  0  0  0  0
  9 10  2  0  0  0  0
  9 11  1  0  0  0  0
 11 12  1  0  0  0  0
 12 19  1  0  0  0  0
 12 13  2  0  0  0  0
 13 26  1  0  0  0  0
 14 13  1  0  0  0  0
 14 18  1  0  0  0  0
 15 14  2  0  0  0  0
 16 11  2  0  0  0  0
 16 15  1  0  0  0  0
 17 16  1  0  0  0  0
 18 28  1  0  0  0  0
 19 29  1  0  0  0  0
 20  8  1  0  0  0  0
 21  4  1  0  0  0  0
 22  3  1  0  0  0  0
 24  2  1  0  0  0  0
 27 15  1  0  0  0  0
 30 20  1  0  0  0  0
 31 21  1  0  0  0  0
 32 22  1  0  0  0  0
M  END
>  <Pose>
2

>  <Score>
-4.99

$$$$

 OpenBabel10152114563D

 32 34  0  0  0  0  0  0  0  0999 V2000
   52.4490   13.0930    9.0690 C   0  0  0  0  0  0  0  0  0  0  0  0
   52.7560   13.6790   10.3000 C   0  0  0  0  0  0  0  0  0  0  0  0
   52.1810   13.1650   11.4550 C   0  0  0  0  0  0  0  0  0  0  0  0
   51.3030   12.0860   11.3830 C   0  0  0  0  0  0  0  0  0  0  0  0
   50.9910   11.4960   10.1640 C   0  0  0  0  0  0  0  0  0  0  0  0
   51.5760   11.9910    8.9930 C   0  0  0  0  0  0  0  0  0  0  0  0
   51.2870   11.3560    7.6960 C   0  0  0  0  0  0  0  0  0  0  0  0
   52.0260   10.3350    7.2140 C   0  0  0  0  0  0  0  0  0  0  0  0
   51.6800    9.8010    5.8690 C   0  0  0  0  0  0  0  0  0  0  0  0
   52.2990    8.8870    5.3310 O   0  0  0  0  0  0  0  0  0  0  0  0
   50.5420   10.4170    5.1760 C   0  0  0  0  0  0  0  0  0  0  0  0
   50.1430    9.9910    3.9030 C   0  0  0  0  0  0  0  0  0  0  0  0
   49.0570   10.5900    3.2680 C   0  0  0  0  0  0  0  0  0  0  0  0
   48.3740   11.6140    3.9180 C   0  0  0  0  0  0  0  0  0  0  0  0
   48.7620   12.0460    5.1830 C   0  0  0  0  0  0  0  0  0  0  0  0
   49.8530   11.4450    5.8120 C   0  0  0  0  0  0  0  0  0  0  0  0
   50.1990   11.9190    7.0510 O   0  0  0  0  0  0  0  0  0  0  0  0
   47.3050   12.2300    3.3370 O   0  0  0  0  0  0  0  0  0  0  0  0
   50.7770    8.9890    3.2180 O   0  0  0  0  0  0  0  0  0  0  0  0
   53.0860    9.7440    7.8800 O   0  0  0  0  0  0  0  0  0  0  0  0
   50.7410   11.5900   12.5240 O   0  0  0  0  0  0  0  0  0  0  0  0
   52.4500   13.6840   12.6900 O   0  0  0  0  0  0  0  0  0  0  0  0
   52.8950   13.5020    8.1630 H   0  0  0  0  0  0  0  0  0  0  0  0
   53.4360   14.5250   10.3340 H   0  0  0  0  0  0  0  0  0  0  0  0
   50.3030   10.6550   10.1380 H   0  0  0  0  0  0  0  0  0  0  0  0
   48.7640   10.2470    2.2810 H   0  0  0  0  0  0  0  0  0  0  0  0
   48.2160   12.8480    5.6730 H   0  0  0  0  0  0  0  0  0  0  0  0
   47.5160   12.4120    2.4050 H   0  0  0  0  0  0  0  0  0  0  0  0
   51.7280    8.9980    3.4760 H   0  0  0  0  0  0  0  0  0  0  0  0
   53.1790   10.1530    8.7570 H   0  0  0  0  0  0  0  0  0  0  0  0
   51.1190   12.1330   13.2440 H   0  0  0  0  0  0  0  0  0  0  0  0
   52.0820   13.0840   13.3620 H   0  0  0  0  0  0  0  0  0  0  0  0
  1  2  1  0  0  0  0
  2 24  1  0  0  0  0
  2  3  2  0  0  0  0
  3 22  1  0  0  0  0
  4  3  1  0  0  0  0
  4 21  1  0  0  0  0
  5  4  2  0  0  0  0
  6  1  2  0  0  0  0
  6  5  1  0  0  0  0
  7  6  1  0  0  0  0
  8  7  2  0  0  0  0
  8 20  1  0  0  0  0
  9  8  1  0  0  0  0
 10  9  2  0  0  0  0
 11 16  1  0  0  0  0
 11  9  1  0  0  0  0
 12 11  2  0  0  0  0
 13 12  1  0  0  0  0
 13 14  2  0  0  0  0
 14 15  1  0  0  0  0
 15 27  1  0  0  0  0
 15 16  2  0  0  0  0
 16 17  1  0  0  0  0
 17  7  1  0  0  0  0
 18 14  1  0  0  0  0
 19 29  1  0  0  0  0
 19 12  1  0  0  0  0
 20 30  1  0  0  0  0
 21 31  1  0  0  0  0
 22 32  1  0  0  0  0
 23  1  1  0  0  0  0
 25  5  1  0  0  0  0
 26 13  1  0  0  0  0
 28 18  1  0  0  0  0
M  END
>  <Pose>
2

>  <Score>
-4.46

$$$$

 OpenBabel10152114563D

 32 34  0  0  0  0  0  0  0  0999 V2000
   47.1000   15.5040    6.1090 C   0  0  0  0  0  0  0  0  0  0  0  0
   48.0790   14.9030    5.3130 C   0  0  0  0  0  0  0  0  0  0  0  0
   48.9480   13.9870    5.8890 C   0  0  0  0  0  0  0  0  0  0  0  0
   48.8490   13.6800    7.2440 C   0  0  0  0  0  0  0  0  0  0  0  0
   47.8800   14.2710    8.0440 C   0  0  0  0  0  0  0  0  0  0  0  0
   46.9840   15.1840    7.4750 C   0  0  0  0  0  0  0  0  0  0  0  0
   45.9250   15.7930    8.2980 C   0  0  0  0  0  0  0  0  0  0  0  0
   44.6910   15.2590    8.3920 C   0  0  0  0  0  0  0  0  0  0  0  0
   43.6810   15.9840    9.2100 C   0  0  0  0  0  0  0  0  0  0  0  0
   42.5240   15.5940    9.3470 O   0  0  0  0  0  0  0  0  0  0  0  0
   44.1150   17.2210    9.8690 C   0  0  0  0  0  0  0  0  0  0  0  0
   43.2370   17.9810   10.6530 C   0  0  0  0  0  0  0  0  0  0  0  0
   43.6760   19.1490   11.2710 C   0  0  0  0  0  0  0  0  0  0  0  0
   44.9980   19.5490   11.1010 C   0  0  0  0  0  0  0  0  0  0  0  0
   45.8800   18.8030   10.3240 C   0  0  0  0  0  0  0  0  0  0  0  0
   45.4330   17.6360    9.7040 C   0  0  0  0  0  0  0  0  0  0  0  0
   46.3410   16.9470    8.9410 O   0  0  0  0  0  0  0  0  0  0  0  0
   45.4740   20.6850   11.6860 O   0  0  0  0  0  0  0  0  0  0  0  0
   41.9280   17.6340   10.8540 O   0  0  0  0  0  0  0  0  0  0  0  0
   44.2910   14.0810    7.7850 O   0  0  0  0  0  0  0  0  0  0  0  0
   49.7110   12.7780    7.8020 O   0  0  0  0  0  0  0  0  0  0  0  0
   49.9190   13.3550    5.1640 O   0  0  0  0  0  0  0  0  0  0  0  0
   46.4230   16.2290    5.6580 H   0  0  0  0  0  0  0  0  0  0  0  0
   48.1450   15.1630    4.2610 H   0  0  0  0  0  0  0  0  0  0  0  0
   47.8260   14.0110    9.0980 H   0  0  0  0  0  0  0  0  0  0  0  0
   42.9800   19.7250   11.8720 H   0  0  0  0  0  0  0  0  0  0  0  0
   46.9080   19.1330   10.2030 H   0  0  0  0  0  0  0  0  0  0  0  0
   45.6240   21.3540   10.9960 H   0  0  0  0  0  0  0  0  0  0  0  0
   41.9070   16.7280   11.2410 H   0  0  0  0  0  0  0  0  0  0  0  0
   43.9590   14.2780    6.8940 H   0  0  0  0  0  0  0  0  0  0  0  0
   50.4960   12.7910    7.2190 H   0  0  0  0  0  0  0  0  0  0  0  0
   50.7730   13.7770    5.3600 H   0  0  0  0  0  0  0  0  0  0  0  0
  1  6  1  0  0  0  0
  2  3  1  0  0  0  0
  2  1  2  0  0  0  0
  3  4  2  0  0  0  0
  4 21  1  0  0  0  0
  4  5  1  0  0  0  0
  5 25  1  0  0  0  0
  6  5  2  0  0  0  0
  6  7  1  0  0  0  0
  7  8  2  0  0  0  0
  7 17  1  0  0  0  0
  8  9  1  0  0  0  0
  9 10  2  0  0  0  0
  9 11  1  0  0  0  0
 11 12  1  0  0  0  0
 12 19  1  0  0  0  0
 12 13  2  0  0  0  0
 13 26  1  0  0  0  0
 14 13  1  0  0  0  0
 14 18  1  0  0  0  0
 15 14  2  0  0  0  0
 16 11  2  0  0  0  0
 16 15  1  0  0  0  0
 17 16  1  0  0  0  0
 19 29  1  0  0  0  0
 20  8  1  0  0  0  0
 22 32  1  0  0  0  0
 22  3  1  0  0  0  0
 23  1  1  0  0  0  0
 24  2  1  0  0  0  0
 27 15  1  0  0  0  0
 28 18  1  0  0  0  0
 30 20  1  0  0  0  0
 31 21  1  0  0  0  0
M  END
>  <Pose>
1

>  <Score>
-3.75

$$$$
