
 OpenBabel10152114563D

 32 34  0  0  0  0  0  0  0  0999 V2000
   62.5170    4.5850   -0.4620 C   0  0  0  0  0  0  0  0  0  0  0  0
   63.4620    4.9180   -1.4380 C   0  0  0  0  0  0  0  0  0  0  0  0
   63.2390    6.0270   -2.2420 C   0  0  0  0  0  0  0  0  0  0  0  0
   62.0840    6.7900   -2.0840 C   0  0  0  0  0  0  0  0  0  0  0  0
   61.1390    6.4680   -1.1180 C   0  0  0  0  0  0  0  0  0  0  0  0
   61.3580    5.3640   -0.2860 C   0  0  0  0  0  0  0  0  0  0  0  0
   60.3870    5.0280    0.7690 C   0  0  0  0  0  0  0  0  0  0  0  0
   59.2530    4.3430    0.5130 C   0  0  0  0  0  0  0  0  0  0  0  0
   58.3170    4.1030    1.6440 C   0  0  0  0  0  0  0  0  0  0  0  0
   57.2500    3.5060    1.5150 O   0  0  0  0  0  0  0  0  0  0  0  0
   58.7100    4.6150    2.9610 C   0  0  0  0  0  0  0  0  0  0  0  0
   57.8930    4.4480    4.0860 C   0  0  0  0  0  0  0  0  0  0  0  0
   58.2910    4.9410    5.3260 C   0  0  0  0  0  0  0  0  0  0  0  0
   59.5130    5.6000    5.4320 C   0  0  0  0  0  0  0  0  0  0  0  0
   60.3340    5.7730    4.3200 C   0  0  0  0  0  0  0  0  0  0  0  0
   59.9270    5.2800    3.0800 C   0  0  0  0  0  0  0  0  0  0  0  0
   60.7680    5.4900    2.0180 O   0  0  0  0  0  0  0  0  0  0  0  0
   59.9460    6.0990    6.6240 O   0  0  0  0  0  0  0  0  0  0  0  0
   56.6820    3.8090    4.0410 O   0  0  0  0  0  0  0  0  0  0  0  0
   58.8960    3.8440   -0.7270 O   0  0  0  0  0  0  0  0  0  0  0  0
   61.8720    7.8770   -2.8830 O   0  0  0  0  0  0  0  0  0  0  0  0
   64.1280    6.4130   -3.2060 O   0  0  0  0  0  0  0  0  0  0  0  0
   62.6900    3.7110    0.1640 H   0  0  0  0  0  0  0  0  0  0  0  0
   64.3510    4.3050   -1.5510 H   0  0  0  0  0  0  0  0  0  0  0  0
   60.2480    7.0810   -1.0170 H   0  0  0  0  0  0  0  0  0  0  0  0
   57.6430    4.8030    6.1860 H   0  0  0  0  0  0  0  0  0  0  0  0
   61.2840    6.2910    4.4230 H   0  0  0  0  0  0  0  0  0  0  0  0
   59.7540    7.0520    6.6530 H   0  0  0  0  0  0  0  0  0  0  0  0
   56.0190    4.3790    4.4940 H   0  0  0  0  0  0  0  0  0  0  0  0
   58.9820    4.5480   -1.3920 H   0  0  0  0  0  0  0  0  0  0  0  0
   61.8390    8.6360   -2.2660 H   0  0  0  0  0  0  0  0  0  0  0  0
   64.7680    7.0270   -2.8050 H   0  0  0  0  0  0  0  0  0  0  0  0
  1  6  1  0  0  0  0
  1 23  1  0  0  0  0
  2  1  2  0  0  0  0
  3  4  2  0  0  0  0
  3  2  1  0  0  0  0
  4  5  1  0  0  0  0
  5 25  1  0  0  0  0
  5  6  2  0  0  0  0
  6  7  1  0  0  0  0
  7 17  1  0  0  0  0
  8  7  2  0  0  0  0
  8  9  1  0  0  0  0
  9 11  1  0  0  0  0
 10  9  2  0  0  0  0
 11 16  2  0  0  0  0
 11 12  1  0  0  0  0
 12 13  2  0  0  0  0
 13 14  1  0  0  0  0
 13 26  1  0  0  0  0
 14 18  1  0  0  0  0
 15 27  1  0  0  0  0
 15 14  2  0  0  0  0
 16 15  1  0  0  0  0
 17 16  1  0  0  0  0
 18 28  1  0  0  0  0
 19 12  1  0  0  0  0
 19 29  1  0  0  0  0
 20  8  1  0  0  0  0
 21 31  1  0  0  0  0
 21  4  1  0  0  0  0
 22 32  1  0  0  0  0
 22  3  1  0  0  0  0
 24  2  1  0  0  0  0
 30 20  1  0  0  0  0
M  END
>  <Pose>
4

>  <Score>
-4.82

$$$$

 OpenBabel10152114563D

 32 34  0  0  0  0  0  0  0  0999 V2000
   59.8990    4.0220    0.9180 C   0  0  0  0  0  0  0  0  0  0  0  0
   59.8830    3.8310   -0.4670 C   0  0  0  0  0  0  0  0  0  0  0  0
   58.6740    3.9190   -1.1460 C   0  0  0  0  0  0  0  0  0  0  0  0
   57.4960    4.1840   -0.4520 C   0  0  0  0  0  0  0  0  0  0  0  0
   57.5010    4.3750    0.9240 C   0  0  0  0  0  0  0  0  0  0  0  0
   58.7130    4.3080    1.6210 C   0  0  0  0  0  0  0  0  0  0  0  0
   58.7460    4.5440    3.0740 C   0  0  0  0  0  0  0  0  0  0  0  0
   59.4090    5.5850    3.6190 C   0  0  0  0  0  0  0  0  0  0  0  0
   59.4210    5.7010    5.1020 C   0  0  0  0  0  0  0  0  0  0  0  0
   60.0090    6.6000    5.6990 O   0  0  0  0  0  0  0  0  0  0  0  0
   58.6890    4.6800    5.8610 C   0  0  0  0  0  0  0  0  0  0  0  0
   58.6480    4.6970    7.2600 C   0  0  0  0  0  0  0  0  0  0  0  0
   57.9430    3.7170    7.9560 C   0  0  0  0  0  0  0  0  0  0  0  0
   57.2800    2.7240    7.2410 C   0  0  0  0  0  0  0  0  0  0  0  0
   57.3140    2.6970    5.8490 C   0  0  0  0  0  0  0  0  0  0  0  0
   58.0250    3.6780    5.1590 C   0  0  0  0  0  0  0  0  0  0  0  0
   58.0360    3.5950    3.7900 O   0  0  0  0  0  0  0  0  0  0  0  0
   56.5770    1.7450    7.8780 O   0  0  0  0  0  0  0  0  0  0  0  0
   59.2810    5.6480    8.0140 O   0  0  0  0  0  0  0  0  0  0  0  0
   60.0810    6.5570    2.8990 O   0  0  0  0  0  0  0  0  0  0  0  0
   56.3120    4.2660   -1.1290 O   0  0  0  0  0  0  0  0  0  0  0  0
   58.5910    3.7560   -2.5000 O   0  0  0  0  0  0  0  0  0  0  0  0
   60.8470    3.9450    1.4500 H   0  0  0  0  0  0  0  0  0  0  0  0
   60.8110    3.6170   -0.9880 H   0  0  0  0  0  0  0  0  0  0  0  0
   56.5670    4.5810    1.4390 H   0  0  0  0  0  0  0  0  0  0  0  0
   57.9250    3.7460    9.0410 H   0  0  0  0  0  0  0  0  0  0  0  0
   56.7900    1.9120    5.3100 H   0  0  0  0  0  0  0  0  0  0  0  0
   55.6530    1.7740    7.5740 H   0  0  0  0  0  0  0  0  0  0  0  0
   59.1500    5.4230    8.9640 H   0  0  0  0  0  0  0  0  0  0  0  0
   59.6490    7.4160    3.0420 H   0  0  0  0  0  0  0  0  0  0  0  0
   55.8470    5.0260   -0.7250 H   0  0  0  0  0  0  0  0  0  0  0  0
   59.4610    3.9550   -2.8870 H   0  0  0  0  0  0  0  0  0  0  0  0
  1 23  1  0  0  0  0
  1  6  1  0  0  0  0
  2  1  2  0  0  0  0
  3  2  1  0  0  0  0
  3  4  2  0  0  0  0
  4  5  1  0  0  0  0
  5 25  1  0  0  0  0
  5  6  2  0  0  0  0
  6  7  1  0  0  0  0
  7  8  2  0  0  0  0
  7 17  1  0  0  0  0
  8  9  1  0  0  0  0
  9 10  2  0  0  0  0
  9 11  1  0  0  0  0
 11 12  1  0  0  0  0
 12 13  2  0  0  0  0
 12 19  1  0  0  0  0
 13 26  1  0  0  0  0
 14 18  1  0  0  0  0
 14 13  1  0  0  0  0
 15 14  2  0  0  0  0
 16 15  1  0  0  0  0
 16 11  2  0  0  0  0
 17 16  1  0  0  0  0
 19 29  1  0  0  0  0
 20 30  1  0  0  0  0
 20  8  1  0  0  0  0
 21 31  1  0  0  0  0
 21  4  1  0  0  0  0
 22  3  1  0  0  0  0
 24  2  1  0  0  0  0
 27 15  1  0  0  0  0
 28 18  1  0  0  0  0
 32 22  1  0  0  0  0
M  END
>  <Pose>
1

>  <Score>
-4.40

$$$$
