
 OpenBabel10152114563D

 32 34  0  0  0  0  0  0  0  0999 V2000
   25.8690    7.3590   -4.1700 C   0  0  0  0  0  0  0  0  0  0  0  0
   26.4070    7.0910   -2.9070 C   0  0  0  0  0  0  0  0  0  0  0  0
   27.6970    6.5850   -2.8160 C   0  0  0  0  0  0  0  0  0  0  0  0
   28.4380    6.3390   -3.9690 C   0  0  0  0  0  0  0  0  0  0  0  0
   27.9140    6.6010   -5.2280 C   0  0  0  0  0  0  0  0  0  0  0  0
   26.6220    7.1290   -5.3370 C   0  0  0  0  0  0  0  0  0  0  0  0
   26.0620    7.4500   -6.6610 C   0  0  0  0  0  0  0  0  0  0  0  0
   25.5990    6.4970   -7.4960 C   0  0  0  0  0  0  0  0  0  0  0  0
   25.1020    6.9260   -8.8320 C   0  0  0  0  0  0  0  0  0  0  0  0
   24.6770    6.1380   -9.6730 O   0  0  0  0  0  0  0  0  0  0  0  0
   25.1360    8.3630   -9.1300 C   0  0  0  0  0  0  0  0  0  0  0  0
   24.6990    8.8660  -10.3620 C   0  0  0  0  0  0  0  0  0  0  0  0
   24.7380   10.2340  -10.6180 C   0  0  0  0  0  0  0  0  0  0  0  0
   25.2150   11.0940   -9.6330 C   0  0  0  0  0  0  0  0  0  0  0  0
   25.6530   10.6060   -8.4040 C   0  0  0  0  0  0  0  0  0  0  0  0
   25.6150    9.2330   -8.1550 C   0  0  0  0  0  0  0  0  0  0  0  0
   26.0700    8.8070   -6.9340 O   0  0  0  0  0  0  0  0  0  0  0  0
   25.2720   12.4410   -9.8370 O   0  0  0  0  0  0  0  0  0  0  0  0
   24.2210    8.0670  -11.3660 O   0  0  0  0  0  0  0  0  0  0  0  0
   25.5510    5.1460   -7.2030 O   0  0  0  0  0  0  0  0  0  0  0  0
   29.7050    5.8390   -3.8690 O   0  0  0  0  0  0  0  0  0  0  0  0
   28.2840    6.3140   -1.6130 O   0  0  0  0  0  0  0  0  0  0  0  0
   24.8550    7.7500   -4.2400 H   0  0  0  0  0  0  0  0  0  0  0  0
   25.8090    7.2820   -2.0210 H   0  0  0  0  0  0  0  0  0  0  0  0
   28.5160    6.4010   -6.1110 H   0  0  0  0  0  0  0  0  0  0  0  0
   24.3960   10.6040  -11.5790 H   0  0  0  0  0  0  0  0  0  0  0  0
   26.0220   11.2930   -7.6480 H   0  0  0  0  0  0  0  0  0  0  0  0
   24.7300   12.8830   -9.1610 H   0  0  0  0  0  0  0  0  0  0  0  0
   24.9880    7.6210  -11.7940 H   0  0  0  0  0  0  0  0  0  0  0  0
   25.7560    4.6370   -8.0050 H   0  0  0  0  0  0  0  0  0  0  0  0
   30.1230    6.3610   -3.1550 H   0  0  0  0  0  0  0  0  0  0  0  0
   29.2060    6.0460   -1.7740 H   0  0  0  0  0  0  0  0  0  0  0  0
  1  2  1  0  0  0  0
  2  3  2  0  0  0  0
  2 24  1  0  0  0  0
  3 22  1  0  0  0  0
  4 21  1  0  0  0  0
  4  3  1  0  0  0  0
  5  4  2  0  0  0  0
  6  5  1  0  0  0  0
  6  1  2  0  0  0  0
  7  6  1  0  0  0  0
  8 20  1  0  0  0  0
  8  7  2  0  0  0  0
  9  8  1  0  0  0  0
 10  9  2  0  0  0  0
 11  9  1  0  0  0  0
 11 16  1  0  0  0  0
 12 11  2  0  0  0  0
 13 12  1  0  0  0  0
 13 14  2  0  0  0  0
 14 15  1  0  0  0  0
 15 16  2  0  0  0  0
 15 27  1  0  0  0  0
 16 17  1  0  0  0  0
 17  7  1  0  0  0  0
 18 14  1  0  0  0  0
 18 28  1  0  0  0  0
 19 12  1  0  0  0  0
 21 31  1  0  0  0  0
 23  1  1  0  0  0  0
 25  5  1  0  0  0  0
 26 13  1  0  0  0  0
 29 19  1  0  0  0  0
 30 20  1  0  0  0  0
 32 22  1  0  0  0  0
M  END
>  <Pose>
1

>  <Score>
-5.36

$$$$

 OpenBabel10152114563D

 32 34  0  0  0  0  0  0  0  0999 V2000
   32.9970   10.6540   -8.5820 C   0  0  0  0  0  0  0  0  0  0  0  0
   33.5790   11.3830   -9.6250 C   0  0  0  0  0  0  0  0  0  0  0  0
   33.4120   10.9420  -10.9310 C   0  0  0  0  0  0  0  0  0  0  0  0
   32.6840    9.7840  -11.1950 C   0  0  0  0  0  0  0  0  0  0  0  0
   32.1020    9.0530  -10.1670 C   0  0  0  0  0  0  0  0  0  0  0  0
   32.2450    9.4940   -8.8460 C   0  0  0  0  0  0  0  0  0  0  0  0
   31.6050    8.7540   -7.7450 C   0  0  0  0  0  0  0  0  0  0  0  0
   32.2150    7.7300   -7.1150 C   0  0  0  0  0  0  0  0  0  0  0  0
   31.4570    7.0180   -6.0510 C   0  0  0  0  0  0  0  0  0  0  0  0
   31.9140    6.0620   -5.4280 O   0  0  0  0  0  0  0  0  0  0  0  0
   30.1030    7.5000   -5.7550 C   0  0  0  0  0  0  0  0  0  0  0  0
   29.3060    6.8910   -4.7780 C   0  0  0  0  0  0  0  0  0  0  0  0
   28.0260    7.3710   -4.5140 C   0  0  0  0  0  0  0  0  0  0  0  0
   27.5510    8.4640   -5.2330 C   0  0  0  0  0  0  0  0  0  0  0  0
   28.3340    9.0770   -6.2070 C   0  0  0  0  0  0  0  0  0  0  0  0
   29.6140    8.5890   -6.4700 C   0  0  0  0  0  0  0  0  0  0  0  0
   30.3360    9.2230   -7.4480 O   0  0  0  0  0  0  0  0  0  0  0  0
   26.3050    8.9700   -5.0100 O   0  0  0  0  0  0  0  0  0  0  0  0
   29.7220    5.8140   -4.0410 O   0  0  0  0  0  0  0  0  0  0  0  0
   33.5000    7.2920   -7.3830 O   0  0  0  0  0  0  0  0  0  0  0  0
   32.5280    9.3580  -12.4830 O   0  0  0  0  0  0  0  0  0  0  0  0
   33.9440   11.6150  -11.9950 O   0  0  0  0  0  0  0  0  0  0  0  0
   33.1350   10.9960   -7.5570 H   0  0  0  0  0  0  0  0  0  0  0  0
   34.1500   12.2770   -9.3970 H   0  0  0  0  0  0  0  0  0  0  0  0
   31.5380    8.1540  -10.4030 H   0  0  0  0  0  0  0  0  0  0  0  0
   27.4230    6.8840   -3.7540 H   0  0  0  0  0  0  0  0  0  0  0  0
   27.9450    9.9290   -6.7580 H   0  0  0  0  0  0  0  0  0  0  0  0
   26.3860    9.9060   -4.7590 H   0  0  0  0  0  0  0  0  0  0  0  0
   30.1780    6.1520   -3.2350 H   0  0  0  0  0  0  0  0  0  0  0  0
   33.9500    7.0890   -6.5460 H   0  0  0  0  0  0  0  0  0  0  0  0
   33.1520    9.9040  -13.0020 H   0  0  0  0  0  0  0  0  0  0  0  0
   33.9060   11.0350  -12.7750 H   0  0  0  0  0  0  0  0  0  0  0  0
  1 23  1  0  0  0  0
  2 24  1  0  0  0  0
  2  1  2  0  0  0  0
  3  2  1  0  0  0  0
  4  3  2  0  0  0  0
  4  5  1  0  0  0  0
  5  6  2  0  0  0  0
  6  1  1  0  0  0  0
  6  7  1  0  0  0  0
  7 17  1  0  0  0  0
  7  8  2  0  0  0  0
  8  9  1  0  0  0  0
  9 11  1  0  0  0  0
  9 10  2  0  0  0  0
 11 12  1  0  0  0  0
 12 13  2  0  0  0  0
 12 19  1  0  0  0  0
 13 26  1  0  0  0  0
 14 18  1  0  0  0  0
 14 13  1  0  0  0  0
 15 14  2  0  0  0  0
 16 15  1  0  0  0  0
 16 11  2  0  0  0  0
 17 16  1  0  0  0  0
 18 28  1  0  0  0  0
 19 29  1  0  0  0  0
 20  8  1  0  0  0  0
 20 30  1  0  0  0  0
 21  4  1  0  0  0  0
 22  3  1  0  0  0  0
 25  5  1  0  0  0  0
 27 15  1  0  0  0  0
 31 21  1  0  0  0  0
 32 22  1  0  0  0  0
M  END
>  <Pose>
3

>  <Score>
-5.13

$$$$

 OpenBabel10152114563D

 32 34  0  0  0  0  0  0  0  0999 V2000
   26.1150    8.8990   -5.9710 C   0  0  0  0  0  0  0  0  0  0  0  0
   25.0260    9.0300   -5.1040 C   0  0  0  0  0  0  0  0  0  0  0  0
   25.1990    9.6990   -3.9000 C   0  0  0  0  0  0  0  0  0  0  0  0
   26.4440   10.2230   -3.5580 C   0  0  0  0  0  0  0  0  0  0  0  0
   27.5320   10.0980   -4.4120 C   0  0  0  0  0  0  0  0  0  0  0  0
   27.3700    9.4430   -5.6380 C   0  0  0  0  0  0  0  0  0  0  0  0
   28.5020    9.3330   -6.5740 C   0  0  0  0  0  0  0  0  0  0  0  0
   28.5060    9.9500   -7.7740 C   0  0  0  0  0  0  0  0  0  0  0  0
   29.6780    9.7300   -8.6640 C   0  0  0  0  0  0  0  0  0  0  0  0
   29.7730   10.2290   -9.7830 O   0  0  0  0  0  0  0  0  0  0  0  0
   30.7540    8.8710   -8.1560 C   0  0  0  0  0  0  0  0  0  0  0  0
   31.8940    8.5960   -8.9210 C   0  0  0  0  0  0  0  0  0  0  0  0
   32.9030    7.7800   -8.4140 C   0  0  0  0  0  0  0  0  0  0  0  0
   32.7620    7.2450   -7.1370 C   0  0  0  0  0  0  0  0  0  0  0  0
   31.6330    7.5100   -6.3670 C   0  0  0  0  0  0  0  0  0  0  0  0
   30.6240    8.3250   -6.8830 C   0  0  0  0  0  0  0  0  0  0  0  0
   29.5290    8.5430   -6.0870 O   0  0  0  0  0  0  0  0  0  0  0  0
   33.7220    6.4410   -6.5980 O   0  0  0  0  0  0  0  0  0  0  0  0
   32.0850    9.0950  -10.1820 O   0  0  0  0  0  0  0  0  0  0  0  0
   27.4980   10.7750   -8.2410 O   0  0  0  0  0  0  0  0  0  0  0  0
   26.6040   10.8770   -2.3700 O   0  0  0  0  0  0  0  0  0  0  0  0
   24.1720    9.8720   -3.0140 O   0  0  0  0  0  0  0  0  0  0  0  0
   25.9800    8.3680   -6.9120 H   0  0  0  0  0  0  0  0  0  0  0  0
   24.0660    8.6070   -5.3850 H   0  0  0  0  0  0  0  0  0  0  0  0
   28.4910   10.5180   -4.1200 H   0  0  0  0  0  0  0  0  0  0  0  0
   33.7780    7.5770   -9.0230 H   0  0  0  0  0  0  0  0  0  0  0  0
   31.5420    7.0820   -5.3730 H   0  0  0  0  0  0  0  0  0  0  0  0
   34.4050    6.2740   -7.2700 H   0  0  0  0  0  0  0  0  0  0  0  0
   33.0100    8.8930  -10.4540 H   0  0  0  0  0  0  0  0  0  0  0  0
   27.4050   11.5350   -7.6420 H   0  0  0  0  0  0  0  0  0  0  0  0
   26.3300   11.7980   -2.5540 H   0  0  0  0  0  0  0  0  0  0  0  0
   24.1610   10.8040   -2.7350 H   0  0  0  0  0  0  0  0  0  0  0  0
  1  6  2  0  0  0  0
  1  2  1  0  0  0  0
  2  3  2  0  0  0  0
  3  4  1  0  0  0  0
  3 22  1  0  0  0  0
  4 21  1  0  0  0  0
  5 25  1  0  0  0  0
  5  4  2  0  0  0  0
  6  5  1  0  0  0  0
  7 17  1  0  0  0  0
  7  6  1  0  0  0  0
  8  7  2  0  0  0  0
  9 11  1  0  0  0  0
  9  8  1  0  0  0  0
 10  9  2  0  0  0  0
 11 16  1  0  0  0  0
 12 13  1  0  0  0  0
 12 11  2  0  0  0  0
 13 14  2  0  0  0  0
 14 18  1  0  0  0  0
 14 15  1  0  0  0  0
 15 27  1  0  0  0  0
 16 15  2  0  0  0  0
 16 17  1  0  0  0  0
 19 12  1  0  0  0  0
 20  8  1  0  0  0  0
 20 30  1  0  0  0  0
 22 32  1  0  0  0  0
 23  1  1  0  0  0  0
 24  2  1  0  0  0  0
 26 13  1  0  0  0  0
 28 18  1  0  0  0  0
 29 19  1  0  0  0  0
 31 21  1  0  0  0  0
M  END
>  <Pose>
1

>  <Score>
-4.91

$$$$
