
 OpenBabel10152114563D

 32 34  0  0  0  0  0  0  0  0999 V2000
   22.9340   34.5990   -7.2820 C   0  0  0  0  0  0  0  0  0  0  0  0
   21.9360   35.0240   -8.1650 C   0  0  0  0  0  0  0  0  0  0  0  0
   20.7210   35.4560   -7.6510 C   0  0  0  0  0  0  0  0  0  0  0  0
   20.4980   35.4550   -6.2760 C   0  0  0  0  0  0  0  0  0  0  0  0
   21.4830   35.0350   -5.3910 C   0  0  0  0  0  0  0  0  0  0  0  0
   22.7210   34.6140   -5.8910 C   0  0  0  0  0  0  0  0  0  0  0  0
   23.7910   34.2010   -4.9670 C   0  0  0  0  0  0  0  0  0  0  0  0
   24.1480   32.9090   -4.8110 C   0  0  0  0  0  0  0  0  0  0  0  0
   25.2060   32.5970   -3.8130 C   0  0  0  0  0  0  0  0  0  0  0  0
   25.5910   31.4540   -3.5810 O   0  0  0  0  0  0  0  0  0  0  0  0
   25.7970   33.7270   -3.0860 C   0  0  0  0  0  0  0  0  0  0  0  0
   26.7930   33.5360   -2.1210 C   0  0  0  0  0  0  0  0  0  0  0  0
   27.3390   34.6260   -1.4480 C   0  0  0  0  0  0  0  0  0  0  0  0
   26.8830   35.9060   -1.7500 C   0  0  0  0  0  0  0  0  0  0  0  0
   25.8930   36.1080   -2.7070 C   0  0  0  0  0  0  0  0  0  0  0  0
   25.3470   35.0120   -3.3750 C   0  0  0  0  0  0  0  0  0  0  0  0
   24.3660   35.2680   -4.2990 O   0  0  0  0  0  0  0  0  0  0  0  0
   27.3880   37.0040   -1.1180 O   0  0  0  0  0  0  0  0  0  0  0  0
   27.2780   32.3010   -1.7840 O   0  0  0  0  0  0  0  0  0  0  0  0
   23.6020   31.8490   -5.5130 O   0  0  0  0  0  0  0  0  0  0  0  0
   19.2980   35.8800   -5.7820 O   0  0  0  0  0  0  0  0  0  0  0  0
   19.7100   35.8950   -8.4580 O   0  0  0  0  0  0  0  0  0  0  0  0
   23.8850   34.2530   -7.6870 H   0  0  0  0  0  0  0  0  0  0  0  0
   22.1270   35.0080   -9.2340 H   0  0  0  0  0  0  0  0  0  0  0  0
   21.2820   35.0470   -4.3230 H   0  0  0  0  0  0  0  0  0  0  0  0
   28.1090   34.4580   -0.7010 H   0  0  0  0  0  0  0  0  0  0  0  0
   25.5500   37.1150   -2.9280 H   0  0  0  0  0  0  0  0  0  0  0  0
   28.3080   36.8220   -0.8610 H   0  0  0  0  0  0  0  0  0  0  0  0
   28.0410   32.1010   -2.3750 H   0  0  0  0  0  0  0  0  0  0  0  0
   24.2310   31.5600   -6.1950 H   0  0  0  0  0  0  0  0  0  0  0  0
   18.9590   35.1200   -5.2660 H   0  0  0  0  0  0  0  0  0  0  0  0
   18.8650   35.5800   -8.0920 H   0  0  0  0  0  0  0  0  0  0  0  0
  1  6  1  0  0  0  0
  2  3  1  0  0  0  0
  2  1  2  0  0  0  0
  3  4  2  0  0  0  0
  4 21  1  0  0  0  0
  4  5  1  0  0  0  0
  5 25  1  0  0  0  0
  6  5  2  0  0  0  0
  6  7  1  0  0  0  0
  7  8  2  0  0  0  0
  7 17  1  0  0  0  0
  8  9  1  0  0  0  0
  9 10  2  0  0  0  0
  9 11  1  0  0  0  0
 11 12  1  0  0  0  0
 12 19  1  0  0  0  0
 12 13  2  0  0  0  0
 13 26  1  0  0  0  0
 14 13  1  0  0  0  0
 14 18  1  0  0  0  0
 15 14  2  0  0  0  0
 16 11  2  0  0  0  0
 16 15  1  0  0  0  0
 17 16  1  0  0  0  0
 18 28  1  0  0  0  0
 20  8  1  0  0  0  0
 21 31  1  0  0  0  0
 22 32  1  0  0  0  0
 22  3  1  0  0  0  0
 23  1  1  0  0  0  0
 24  2  1  0  0  0  0
 27 15  1  0  0  0  0
 29 19  1  0  0  0  0
 30 20  1  0  0  0  0
M  END
>  <Pose>
4

>  <Score>
-4.27

$$$$

 OpenBabel10152114563D

 32 34  0  0  0  0  0  0  0  0999 V2000
   25.8170   35.3360   -1.3650 C   0  0  0  0  0  0  0  0  0  0  0  0
   26.7520   35.7200   -0.3990 C   0  0  0  0  0  0  0  0  0  0  0  0
   28.0580   35.2590   -0.5030 C   0  0  0  0  0  0  0  0  0  0  0  0
   28.4250   34.4180   -1.5520 C   0  0  0  0  0  0  0  0  0  0  0  0
   27.5040   34.0320   -2.5170 C   0  0  0  0  0  0  0  0  0  0  0  0
   26.1880   34.5020   -2.4360 C   0  0  0  0  0  0  0  0  0  0  0  0
   25.2060   34.1340   -3.4700 C   0  0  0  0  0  0  0  0  0  0  0  0
   24.9550   32.8500   -3.8000 C   0  0  0  0  0  0  0  0  0  0  0  0
   23.9810   32.5920   -4.8950 C   0  0  0  0  0  0  0  0  0  0  0  0
   23.6950   31.4630   -5.2850 O   0  0  0  0  0  0  0  0  0  0  0  0
   23.3510   33.7600   -5.5210 C   0  0  0  0  0  0  0  0  0  0  0  0
   22.4280   33.6230   -6.5660 C   0  0  0  0  0  0  0  0  0  0  0  0
   21.8420   34.7480   -7.1400 C   0  0  0  0  0  0  0  0  0  0  0  0
   22.1840   36.0090   -6.6610 C   0  0  0  0  0  0  0  0  0  0  0  0
   23.1000   36.1580   -5.6230 C   0  0  0  0  0  0  0  0  0  0  0  0
   23.6870   35.0280   -5.0550 C   0  0  0  0  0  0  0  0  0  0  0  0
   24.5920   35.2340   -4.0450 O   0  0  0  0  0  0  0  0  0  0  0  0
   21.6360   37.1400   -7.1900 O   0  0  0  0  0  0  0  0  0  0  0  0
   22.0560   32.4080   -7.0770 O   0  0  0  0  0  0  0  0  0  0  0  0
   25.5370   31.7510   -3.1930 O   0  0  0  0  0  0  0  0  0  0  0  0
   29.7110   33.9690   -1.6440 O   0  0  0  0  0  0  0  0  0  0  0  0
   29.0220   35.6070    0.4000 O   0  0  0  0  0  0  0  0  0  0  0  0
   24.7910   35.6920   -1.2780 H   0  0  0  0  0  0  0  0  0  0  0  0
   26.4430   36.3680    0.4150 H   0  0  0  0  0  0  0  0  0  0  0  0
   27.8190   33.3760   -3.3240 H   0  0  0  0  0  0  0  0  0  0  0  0
   21.1300   34.6210   -7.9500 H   0  0  0  0  0  0  0  0  0  0  0  0
   23.3540   37.1520   -5.2630 H   0  0  0  0  0  0  0  0  0  0  0  0
   20.7210   37.2230   -6.8720 H   0  0  0  0  0  0  0  0  0  0  0  0
   22.8040   32.0610   -7.6160 H   0  0  0  0  0  0  0  0  0  0  0  0
   25.5980   31.0260   -3.8380 H   0  0  0  0  0  0  0  0  0  0  0  0
   29.6620   33.1920   -2.2360 H   0  0  0  0  0  0  0  0  0  0  0  0
   28.7950   35.2100    1.2590 H   0  0  0  0  0  0  0  0  0  0  0  0
  1 23  1  0  0  0  0
  1  2  1  0  0  0  0
  2 24  1  0  0  0  0
  3  2  2  0  0  0  0
  3 22  1  0  0  0  0
  4  3  1  0  0  0  0
  5  6  1  0  0  0  0
  5  4  2  0  0  0  0
  6  1  2  0  0  0  0
  7  6  1  0  0  0  0
  8  7  2  0  0  0  0
  8 20  1  0  0  0  0
  9  8  1  0  0  0  0
 10  9  2  0  0  0  0
 11 16  1  0  0  0  0
 11  9  1  0  0  0  0
 12 11  2  0  0  0  0
 13 14  2  0  0  0  0
 13 12  1  0  0  0  0
 14 15  1  0  0  0  0
 15 27  1  0  0  0  0
 15 16  2  0  0  0  0
 16 17  1  0  0  0  0
 17  7  1  0  0  0  0
 18 28  1  0  0  0  0
 18 14  1  0  0  0  0
 19 12  1  0  0  0  0
 21  4  1  0  0  0  0
 22 32  1  0  0  0  0
 25  5  1  0  0  0  0
 26 13  1  0  0  0  0
 29 19  1  0  0  0  0
 30 20  1  0  0  0  0
 31 21  1  0  0  0  0
M  END
>  <Pose>
1

>  <Score>
-4.01

$$$$
