
 OpenBabel10152114563D

 32 34  0  0  0  0  0  0  0  0999 V2000
    8.3540    5.2100   17.7440 C   0  0  0  0  0  0  0  0  0  0  0  0
    7.7880    4.7230   16.5620 C   0  0  0  0  0  0  0  0  0  0  0  0
    7.6880    5.5680   15.4640 C   0  0  0  0  0  0  0  0  0  0  0  0
    8.1370    6.8840   15.5450 C   0  0  0  0  0  0  0  0  0  0  0  0
    8.7020    7.3770   16.7150 C   0  0  0  0  0  0  0  0  0  0  0  0
    8.8270    6.5340   17.8250 C   0  0  0  0  0  0  0  0  0  0  0  0
    9.4560    7.0260   19.0620 C   0  0  0  0  0  0  0  0  0  0  0  0
    8.9520    8.0620   19.7630 C   0  0  0  0  0  0  0  0  0  0  0  0
    9.6960    8.5120   20.9700 C   0  0  0  0  0  0  0  0  0  0  0  0
    9.3330    9.4550   21.6690 O   0  0  0  0  0  0  0  0  0  0  0  0
   10.9180    7.7770   21.3170 C   0  0  0  0  0  0  0  0  0  0  0  0
   11.6940    8.1290   22.4290 C   0  0  0  0  0  0  0  0  0  0  0  0
   12.8480    7.4130   22.7380 C   0  0  0  0  0  0  0  0  0  0  0  0
   13.2170    6.3430   21.9280 C   0  0  0  0  0  0  0  0  0  0  0  0
   12.4540    5.9840   20.8200 C   0  0  0  0  0  0  0  0  0  0  0  0
   11.3020    6.7080   20.5130 C   0  0  0  0  0  0  0  0  0  0  0  0
   10.5960    6.3180   19.4040 O   0  0  0  0  0  0  0  0  0  0  0  0
   14.3380    5.6110   22.1910 O   0  0  0  0  0  0  0  0  0  0  0  0
   11.3790    9.1720   23.2590 O   0  0  0  0  0  0  0  0  0  0  0  0
    7.7880    8.7390   19.4440 O   0  0  0  0  0  0  0  0  0  0  0  0
    8.0320    7.7060   14.4610 O   0  0  0  0  0  0  0  0  0  0  0  0
    7.1560    5.1500   14.2760 O   0  0  0  0  0  0  0  0  0  0  0  0
    8.4260    4.5490   18.6070 H   0  0  0  0  0  0  0  0  0  0  0  0
    7.4350    3.6970   16.5220 H   0  0  0  0  0  0  0  0  0  0  0  0
    9.0450    8.4070   16.7490 H   0  0  0  0  0  0  0  0  0  0  0  0
   13.4370    7.7020   23.6020 H   0  0  0  0  0  0  0  0  0  0  0  0
   12.7600    5.1450   20.2000 H   0  0  0  0  0  0  0  0  0  0  0  0
   14.7680    5.3840   21.3490 H   0  0  0  0  0  0  0  0  0  0  0  0
   11.1000    9.9340   22.7000 H   0  0  0  0  0  0  0  0  0  0  0  0
    7.9690    9.3620   18.7210 H   0  0  0  0  0  0  0  0  0  0  0  0
    7.4530    8.4370   14.7580 H   0  0  0  0  0  0  0  0  0  0  0  0
    7.5480    4.2890   14.0500 H   0  0  0  0  0  0  0  0  0  0  0  0
  1  6  1  0  0  0  0
  1 23  1  0  0  0  0
  2  1  2  0  0  0  0
  3  4  2  0  0  0  0
  3  2  1  0  0  0  0
  4  5  1  0  0  0  0
  5 25  1  0  0  0  0
  5  6  2  0  0  0  0
  6  7  1  0  0  0  0
  7 17  1  0  0  0  0
  7  8  2  0  0  0  0
  8  9  1  0  0  0  0
  9 11  1  0  0  0  0
  9 10  2  0  0  0  0
 11 12  1  0  0  0  0
 12 13  2  0  0  0  0
 12 19  1  0  0  0  0
 13 26  1  0  0  0  0
 14 18  1  0  0  0  0
 14 13  1  0  0  0  0
 15 14  2  0  0  0  0
 16 15  1  0  0  0  0
 16 11  2  0  0  0  0
 17 16  1  0  0  0  0
 20  8  1  0  0  0  0
 21 31  1  0  0  0  0
 21  4  1  0  0  0  0
 22  3  1  0  0  0  0
 24  2  1  0  0  0  0
 27 15  1  0  0  0  0
 28 18  1  0  0  0  0
 29 19  1  0  0  0  0
 30 20  1  0  0  0  0
 32 22  1  0  0  0  0
M  END
>  <Pose>
3

>  <Score>
-4.39

$$$$

 OpenBabel10152114563D

 32 34  0  0  0  0  0  0  0  0999 V2000
    8.3160    6.0040   18.6770 C   0  0  0  0  0  0  0  0  0  0  0  0
    8.1920    5.1420   17.5830 C   0  0  0  0  0  0  0  0  0  0  0  0
    8.1740    5.6760   16.3020 C   0  0  0  0  0  0  0  0  0  0  0  0
    8.2680    7.0530   16.1130 C   0  0  0  0  0  0  0  0  0  0  0  0
    8.3910    7.9180   17.1920 C   0  0  0  0  0  0  0  0  0  0  0  0
    8.4290    7.3950   18.4900 C   0  0  0  0  0  0  0  0  0  0  0  0
    8.5970    8.2920   19.6460 C   0  0  0  0  0  0  0  0  0  0  0  0
    7.6970    9.2490   19.9510 C   0  0  0  0  0  0  0  0  0  0  0  0
    7.9910   10.1350   21.1100 C   0  0  0  0  0  0  0  0  0  0  0  0
    7.2470   11.0480   21.4610 O   0  0  0  0  0  0  0  0  0  0  0  0
    9.2340    9.8840   21.8480 C   0  0  0  0  0  0  0  0  0  0  0  0
    9.6040   10.6680   22.9470 C   0  0  0  0  0  0  0  0  0  0  0  0
   10.7880   10.4060   23.6320 C   0  0  0  0  0  0  0  0  0  0  0  0
   11.5960    9.3550   23.2100 C   0  0  0  0  0  0  0  0  0  0  0  0
   11.2390    8.5680   22.1180 C   0  0  0  0  0  0  0  0  0  0  0  0
   10.0540    8.8380   21.4330 C   0  0  0  0  0  0  0  0  0  0  0  0
    9.7580    8.0410   20.3580 O   0  0  0  0  0  0  0  0  0  0  0  0
   12.7640    9.0590   23.8490 O   0  0  0  0  0  0  0  0  0  0  0  0
    8.8480   11.7140   23.4060 O   0  0  0  0  0  0  0  0  0  0  0  0
    6.5160    9.4690   19.2640 O   0  0  0  0  0  0  0  0  0  0  0  0
    8.2470    7.5690   14.8480 O   0  0  0  0  0  0  0  0  0  0  0  0
    8.0690    4.8880   15.1910 O   0  0  0  0  0  0  0  0  0  0  0  0
    8.3220    5.5850   19.6830 H   0  0  0  0  0  0  0  0  0  0  0  0
    8.1110    4.0730   17.7530 H   0  0  0  0  0  0  0  0  0  0  0  0
    8.4640    8.9880   17.0150 H   0  0  0  0  0  0  0  0  0  0  0  0
   11.0580   11.0260   24.4810 H   0  0  0  0  0  0  0  0  0  0  0  0
   11.8840    7.7520   21.8040 H   0  0  0  0  0  0  0  0  0  0  0  0
   12.6370    9.1790   24.8060 H   0  0  0  0  0  0  0  0  0  0  0  0
    7.9120   11.5500   23.1480 H   0  0  0  0  0  0  0  0  0  0  0  0
    6.7100    9.5680   18.3180 H   0  0  0  0  0  0  0  0  0  0  0  0
    7.6650    8.3520   14.9090 H   0  0  0  0  0  0  0  0  0  0  0  0
    8.5590    4.0630   15.3520 H   0  0  0  0  0  0  0  0  0  0  0  0
  1 23  1  0  0  0  0
  2 24  1  0  0  0  0
  2  1  2  0  0  0  0
  3  2  1  0  0  0  0
  4  3  2  0  0  0  0
  4  5  1  0  0  0  0
  5  6  2  0  0  0  0
  6  1  1  0  0  0  0
  6  7  1  0  0  0  0
  7  8  2  0  0  0  0
  7 17  1  0  0  0  0
  8  9  1  0  0  0  0
  9 10  2  0  0  0  0
  9 11  1  0  0  0  0
 11 12  1  0  0  0  0
 12 19  1  0  0  0  0
 12 13  2  0  0  0  0
 13 26  1  0  0  0  0
 14 13  1  0  0  0  0
 14 18  1  0  0  0  0
 15 14  2  0  0  0  0
 16 11  2  0  0  0  0
 16 15  1  0  0  0  0
 17 16  1  0  0  0  0
 18 28  1  0  0  0  0
 20  8  1  0  0  0  0
 21 31  1  0  0  0  0
 21  4  1  0  0  0  0
 22 32  1  0  0  0  0
 22  3  1  0  0  0  0
 25  5  1  0  0  0  0
 27 15  1  0  0  0  0
 29 19  1  0  0  0  0
 30 20  1  0  0  0  0
M  END
>  <Pose>
1

>  <Score>
-4.31

$$$$

 OpenBabel10152114563D

 32 34  0  0  0  0  0  0  0  0999 V2000
    7.5350    5.4530   15.6510 C   0  0  0  0  0  0  0  0  0  0  0  0
    7.9210    5.9810   16.8870 C   0  0  0  0  0  0  0  0  0  0  0  0
    8.4120    7.2790   16.9420 C   0  0  0  0  0  0  0  0  0  0  0  0
    8.5280    8.0370   15.7800 C   0  0  0  0  0  0  0  0  0  0  0  0
    8.1480    7.5220   14.5470 C   0  0  0  0  0  0  0  0  0  0  0  0
    7.6330    6.2220   14.4760 C   0  0  0  0  0  0  0  0  0  0  0  0
    7.1900    5.6710   13.1840 C   0  0  0  0  0  0  0  0  0  0  0  0
    5.9570    5.1530   13.0080 C   0  0  0  0  0  0  0  0  0  0  0  0
    5.6300    4.5760   11.6760 C   0  0  0  0  0  0  0  0  0  0  0  0
    4.5430    4.0640   11.4170 O   0  0  0  0  0  0  0  0  0  0  0  0
    6.6730    4.6320   10.6460 C   0  0  0  0  0  0  0  0  0  0  0  0
    6.4660    4.1080    9.3640 C   0  0  0  0  0  0  0  0  0  0  0  0
    7.4720    4.1780    8.4040 C   0  0  0  0  0  0  0  0  0  0  0  0
    8.6840    4.7770    8.7350 C   0  0  0  0  0  0  0  0  0  0  0  0
    8.9020    5.3020   10.0060 C   0  0  0  0  0  0  0  0  0  0  0  0
    7.8920    5.2250   10.9660 C   0  0  0  0  0  0  0  0  0  0  0  0
    8.1650    5.7460   12.2040 O   0  0  0  0  0  0  0  0  0  0  0  0
    9.6980    4.8700    7.8290 O   0  0  0  0  0  0  0  0  0  0  0  0
    5.2960    3.5080    8.9840 O   0  0  0  0  0  0  0  0  0  0  0  0
    4.9690    5.1200   13.9770 O   0  0  0  0  0  0  0  0  0  0  0  0
    9.0150    9.3110   15.8450 O   0  0  0  0  0  0  0  0  0  0  0  0
    8.7940    7.8580   18.1200 O   0  0  0  0  0  0  0  0  0  0  0  0
    7.1570    4.4320   15.6080 H   0  0  0  0  0  0  0  0  0  0  0  0
    7.8310    5.3700   17.7800 H   0  0  0  0  0  0  0  0  0  0  0  0
    8.2490    8.1370   13.6570 H   0  0  0  0  0  0  0  0  0  0  0  0
    7.2930    3.7640    7.4170 H   0  0  0  0  0  0  0  0  0  0  0  0
    9.8550    5.7650   10.2450 H   0  0  0  0  0  0  0  0  0  0  0  0
   10.5150    4.5340    8.2360 H   0  0  0  0  0  0  0  0  0  0  0  0
    5.1530    2.7220    9.5620 H   0  0  0  0  0  0  0  0  0  0  0  0
    4.2440    5.7120   13.7140 H   0  0  0  0  0  0  0  0  0  0  0  0
    8.5070    9.7350   16.5650 H   0  0  0  0  0  0  0  0  0  0  0  0
    8.9130    8.8120   17.9690 H   0  0  0  0  0  0  0  0  0  0  0  0
  1  2  1  0  0  0  0
  2  3  2  0  0  0  0
  2 24  1  0  0  0  0
  3 22  1  0  0  0  0
  4 21  1  0  0  0  0
  4  3  1  0  0  0  0
  5  4  2  0  0  0  0
  6  5  1  0  0  0  0
  6  1  2  0  0  0  0
  7  6  1  0  0  0  0
  8  7  2  0  0  0  0
  8 20  1  0  0  0  0
  9  8  1  0  0  0  0
 10  9  2  0  0  0  0
 11 16  1  0  0  0  0
 11  9  1  0  0  0  0
 12 11  2  0  0  0  0
 13 14  2  0  0  0  0
 13 12  1  0  0  0  0
 14 15  1  0  0  0  0
 15 27  1  0  0  0  0
 15 16  2  0  0  0  0
 16 17  1  0  0  0  0
 17  7  1  0  0  0  0
 18 28  1  0  0  0  0
 18 14  1  0  0  0  0
 19 12  1  0  0  0  0
 19 29  1  0  0  0  0
 21 31  1  0  0  0  0
 23  1  1  0  0  0  0
 25  5  1  0  0  0  0
 26 13  1  0  0  0  0
 30 20  1  0  0  0  0
 32 22  1  0  0  0  0
M  END
>  <Pose>
1

>  <Score>
-4.17

$$$$
