
 OpenBabel10152114563D

 32 34  0  0  0  0  0  0  0  0999 V2000
   20.5380   29.1210  -11.7170 C   0  0  0  0  0  0  0  0  0  0  0  0
   19.8690   30.2390  -11.2090 C   0  0  0  0  0  0  0  0  0  0  0  0
   20.5410   31.0920  -10.3440 C   0  0  0  0  0  0  0  0  0  0  0  0
   21.8610   30.8300   -9.9820 C   0  0  0  0  0  0  0  0  0  0  0  0
   22.5350   29.7240  -10.4820 C   0  0  0  0  0  0  0  0  0  0  0  0
   21.8780   28.8630  -11.3690 C   0  0  0  0  0  0  0  0  0  0  0  0
   22.5870   27.7050  -11.9400 C   0  0  0  0  0  0  0  0  0  0  0  0
   23.5210   27.8370  -12.9030 C   0  0  0  0  0  0  0  0  0  0  0  0
   24.1390   26.5970  -13.4460 C   0  0  0  0  0  0  0  0  0  0  0  0
   24.9850   26.6040  -14.3370 O   0  0  0  0  0  0  0  0  0  0  0  0
   23.6950   25.3210  -12.8740 C   0  0  0  0  0  0  0  0  0  0  0  0
   24.2090   24.0980  -13.3230 C   0  0  0  0  0  0  0  0  0  0  0  0
   23.7730   22.9010  -12.7610 C   0  0  0  0  0  0  0  0  0  0  0  0
   22.8220   22.9370  -11.7450 C   0  0  0  0  0  0  0  0  0  0  0  0
   22.3030   24.1470  -11.2900 C   0  0  0  0  0  0  0  0  0  0  0  0
   22.7410   25.3420  -11.8610 C   0  0  0  0  0  0  0  0  0  0  0  0
   22.1870   26.5020  -11.3840 O   0  0  0  0  0  0  0  0  0  0  0  0
   22.3650   21.7920  -11.1630 O   0  0  0  0  0  0  0  0  0  0  0  0
   25.1450   24.0030  -14.3180 O   0  0  0  0  0  0  0  0  0  0  0  0
   23.9520   29.0440  -13.4260 O   0  0  0  0  0  0  0  0  0  0  0  0
   22.5120   31.6750   -9.1290 O   0  0  0  0  0  0  0  0  0  0  0  0
   19.9480   32.2070   -9.8220 O   0  0  0  0  0  0  0  0  0  0  0  0
   20.0080   28.4490  -12.3900 H   0  0  0  0  0  0  0  0  0  0  0  0
   18.8380   30.4200  -11.4960 H   0  0  0  0  0  0  0  0  0  0  0  0
   23.5640   29.5450  -10.1840 H   0  0  0  0  0  0  0  0  0  0  0  0
   24.1830   21.9640  -13.1240 H   0  0  0  0  0  0  0  0  0  0  0  0
   21.5600   24.1540  -10.4970 H   0  0  0  0  0  0  0  0  0  0  0  0
   21.5250   21.5410  -11.5830 H   0  0  0  0  0  0  0  0  0  0  0  0
   26.0380   24.0120  -13.9000 H   0  0  0  0  0  0  0  0  0  0  0  0
   24.5960   29.4440  -12.8180 H   0  0  0  0  0  0  0  0  0  0  0  0
   23.4140   31.3040   -9.0520 H   0  0  0  0  0  0  0  0  0  0  0  0
   19.8430   32.0790   -8.8630 H   0  0  0  0  0  0  0  0  0  0  0  0
  1  6  2  0  0  0  0
  1  2  1  0  0  0  0
  2  3  2  0  0  0  0
  3  4  1  0  0  0  0
  3 22  1  0  0  0  0
  4 21  1  0  0  0  0
  5 25  1  0  0  0  0
  5  4  2  0  0  0  0
  6  5  1  0  0  0  0
  7 17  1  0  0  0  0
  7  6  1  0  0  0  0
  8  7  2  0  0  0  0
  9  8  1  0  0  0  0
  9 11  1  0  0  0  0
 10  9  2  0  0  0  0
 11 16  1  0  0  0  0
 12 11  2  0  0  0  0
 12 13  1  0  0  0  0
 13 14  2  0  0  0  0
 14 15  1  0  0  0  0
 14 18  1  0  0  0  0
 15 27  1  0  0  0  0
 16 17  1  0  0  0  0
 16 15  2  0  0  0  0
 19 29  1  0  0  0  0
 19 12  1  0  0  0  0
 20  8  1  0  0  0  0
 20 30  1  0  0  0  0
 21 31  1  0  0  0  0
 22 32  1  0  0  0  0
 23  1  1  0  0  0  0
 24  2  1  0  0  0  0
 26 13  1  0  0  0  0
 28 18  1  0  0  0  0
M  END
>  <Pose>
2

>  <Score>
-4.03

$$$$

 OpenBabel10152114563D

 32 34  0  0  0  0  0  0  0  0999 V2000
   22.4600   29.5830  -11.9970 C   0  0  0  0  0  0  0  0  0  0  0  0
   21.9930   30.8760  -11.7390 C   0  0  0  0  0  0  0  0  0  0  0  0
   20.8650   31.0390  -10.9460 C   0  0  0  0  0  0  0  0  0  0  0  0
   20.2030   29.9290  -10.4270 C   0  0  0  0  0  0  0  0  0  0  0  0
   20.6590   28.6410  -10.6780 C   0  0  0  0  0  0  0  0  0  0  0  0
   21.8060   28.4590  -11.4590 C   0  0  0  0  0  0  0  0  0  0  0  0
   22.3270   27.1040  -11.7060 C   0  0  0  0  0  0  0  0  0  0  0  0
   21.6360   26.1840  -12.4090 C   0  0  0  0  0  0  0  0  0  0  0  0
   22.2320   24.8290  -12.5540 C   0  0  0  0  0  0  0  0  0  0  0  0
   21.6770   23.9140  -13.1590 O   0  0  0  0  0  0  0  0  0  0  0  0
   23.5430   24.6030  -11.9350 C   0  0  0  0  0  0  0  0  0  0  0  0
   24.1830   23.3590  -12.0080 C   0  0  0  0  0  0  0  0  0  0  0  0
   25.4290   23.1720  -11.4140 C   0  0  0  0  0  0  0  0  0  0  0  0
   26.0280   24.2380  -10.7500 C   0  0  0  0  0  0  0  0  0  0  0  0
   25.4020   25.4790  -10.6700 C   0  0  0  0  0  0  0  0  0  0  0  0
   24.1520   25.6580  -11.2630 C   0  0  0  0  0  0  0  0  0  0  0  0
   23.5750   26.8960  -11.1430 O   0  0  0  0  0  0  0  0  0  0  0  0
   27.2470   24.1040  -10.1530 O   0  0  0  0  0  0  0  0  0  0  0  0
   23.6400   22.2770  -12.6480 O   0  0  0  0  0  0  0  0  0  0  0  0
   20.4090   26.4080  -13.0090 O   0  0  0  0  0  0  0  0  0  0  0  0
   19.0930   30.1000   -9.6510 O   0  0  0  0  0  0  0  0  0  0  0  0
   20.3650   32.2750  -10.6450 O   0  0  0  0  0  0  0  0  0  0  0  0
   23.3420   29.4560  -12.6250 H   0  0  0  0  0  0  0  0  0  0  0  0
   22.5180   31.7270  -12.1610 H   0  0  0  0  0  0  0  0  0  0  0  0
   20.1240   27.7930  -10.2580 H   0  0  0  0  0  0  0  0  0  0  0  0
   25.9080   22.2000  -11.4800 H   0  0  0  0  0  0  0  0  0  0  0  0
   25.8860   26.2980  -10.1460 H   0  0  0  0  0  0  0  0  0  0  0  0
   27.1580   24.3090   -9.2070 H   0  0  0  0  0  0  0  0  0  0  0  0
   24.2280   21.5020  -12.4900 H   0  0  0  0  0  0  0  0  0  0  0  0
   19.8060   26.8130  -12.3630 H   0  0  0  0  0  0  0  0  0  0  0  0
   18.9550   29.2340   -9.2180 H   0  0  0  0  0  0  0  0  0  0  0  0
   20.7970   32.5920   -9.8330 H   0  0  0  0  0  0  0  0  0  0  0  0
  1  2  2  0  0  0  0
  1  6  1  0  0  0  0
  2  3  1  0  0  0  0
  3 22  1  0  0  0  0
  3  4  2  0  0  0  0
  4 21  1  0  0  0  0
  5  4  1  0  0  0  0
  5 25  1  0  0  0  0
  6  5  2  0  0  0  0
  7  6  1  0  0  0  0
  7 17  1  0  0  0  0
  8  7  2  0  0  0  0
  9  8  1  0  0  0  0
  9 11  1  0  0  0  0
 10  9  2  0  0  0  0
 11 16  1  0  0  0  0
 12 11  2  0  0  0  0
 12 13  1  0  0  0  0
 13 14  2  0  0  0  0
 14 15  1  0  0  0  0
 14 18  1  0  0  0  0
 15 27  1  0  0  0  0
 16 17  1  0  0  0  0
 16 15  2  0  0  0  0
 18 28  1  0  0  0  0
 19 29  1  0  0  0  0
 19 12  1  0  0  0  0
 20  8  1  0  0  0  0
 20 30  1  0  0  0  0
 21 31  1  0  0  0  0
 22 32  1  0  0  0  0
 23  1  1  0  0  0  0
 24  2  1  0  0  0  0
 26 13  1  0  0  0  0
M  END
>  <Pose>
1

>  <Score>
-3.90

$$$$

 OpenBabel10152114563D

 32 34  0  0  0  0  0  0  0  0999 V2000
   22.4030   29.7370  -10.6950 C   0  0  0  0  0  0  0  0  0  0  0  0
   21.6940   30.8050  -10.1350 C   0  0  0  0  0  0  0  0  0  0  0  0
   20.3330   30.9160  -10.3880 C   0  0  0  0  0  0  0  0  0  0  0  0
   19.6890   29.9820  -11.1960 C   0  0  0  0  0  0  0  0  0  0  0  0
   20.3840   28.9190  -11.7560 C   0  0  0  0  0  0  0  0  0  0  0  0
   21.7530   28.7810  -11.4970 C   0  0  0  0  0  0  0  0  0  0  0  0
   22.5010   27.6390  -12.0500 C   0  0  0  0  0  0  0  0  0  0  0  0
   23.4960   27.7970  -12.9470 C   0  0  0  0  0  0  0  0  0  0  0  0
   24.1510   26.5720  -13.4810 C   0  0  0  0  0  0  0  0  0  0  0  0
   25.0540   26.6040  -14.3140 O   0  0  0  0  0  0  0  0  0  0  0  0
   23.6730   25.2810  -12.9730 C   0  0  0  0  0  0  0  0  0  0  0  0
   24.2190   24.0710  -13.4210 C   0  0  0  0  0  0  0  0  0  0  0  0
   23.7500   22.8590  -12.9200 C   0  0  0  0  0  0  0  0  0  0  0  0
   22.7340   22.8680  -11.9680 C   0  0  0  0  0  0  0  0  0  0  0  0
   22.1830   24.0640  -11.5160 C   0  0  0  0  0  0  0  0  0  0  0  0
   22.6550   25.2750  -12.0250 C   0  0  0  0  0  0  0  0  0  0  0  0
   22.0680   26.4210  -11.5540 O   0  0  0  0  0  0  0  0  0  0  0  0
   22.2430   21.7070  -11.4480 O   0  0  0  0  0  0  0  0  0  0  0  0
   25.2190   24.0040  -14.3540 O   0  0  0  0  0  0  0  0  0  0  0  0
   23.9570   29.0180  -13.4070 O   0  0  0  0  0  0  0  0  0  0  0  0
   18.3510   30.1030  -11.4410 O   0  0  0  0  0  0  0  0  0  0  0  0
   19.5800   31.9280   -9.8620 O   0  0  0  0  0  0  0  0  0  0  0  0
   23.4720   29.6550  -10.5010 H   0  0  0  0  0  0  0  0  0  0  0  0
   22.2160   31.5270   -9.5160 H   0  0  0  0  0  0  0  0  0  0  0  0
   19.8560   28.2040  -12.3820 H   0  0  0  0  0  0  0  0  0  0  0  0
   24.1850   21.9320  -13.2810 H   0  0  0  0  0  0  0  0  0  0  0  0
   21.3910   24.0490  -10.7730 H   0  0  0  0  0  0  0  0  0  0  0  0
   21.3370   21.5740  -11.7780 H   0  0  0  0  0  0  0  0  0  0  0  0
   26.0820   24.0070  -13.8780 H   0  0  0  0  0  0  0  0  0  0  0  0
   24.2020   29.5740  -12.6490 H   0  0  0  0  0  0  0  0  0  0  0  0
   17.9180   29.7200  -10.6510 H   0  0  0  0  0  0  0  0  0  0  0  0
   19.7950   32.0120   -8.9170 H   0  0  0  0  0  0  0  0  0  0  0  0
  1 23  1  0  0  0  0
  1  2  1  0  0  0  0
  2 24  1  0  0  0  0
  3  2  2  0  0  0  0
  3 22  1  0  0  0  0
  4  3  1  0  0  0  0
  5  6  1  0  0  0  0
  5  4  2  0  0  0  0
  6  1  2  0  0  0  0
  7 17  1  0  0  0  0
  7  6  1  0  0  0  0
  8  7  2  0  0  0  0
  9 11  1  0  0  0  0
  9  8  1  0  0  0  0
 10  9  2  0  0  0  0
 11 16  1  0  0  0  0
 12 11  2  0  0  0  0
 12 13  1  0  0  0  0
 13 14  2  0  0  0  0
 14 15  1  0  0  0  0
 14 18  1  0  0  0  0
 15 27  1  0  0  0  0
 16 17  1  0  0  0  0
 16 15  2  0  0  0  0
 19 29  1  0  0  0  0
 19 12  1  0  0  0  0
 20  8  1  0  0  0  0
 20 30  1  0  0  0  0
 21  4  1  0  0  0  0
 21 31  1  0  0  0  0
 22 32  1  0  0  0  0
 25  5  1  0  0  0  0
 26 13  1  0  0  0  0
 28 18  1  0  0  0  0
M  END
>  <Pose>
1

>  <Score>
-3.88

$$$$

 OpenBabel10152114563D

 32 34  0  0  0  0  0  0  0  0999 V2000
   24.0620   25.9720  -11.4840 C   0  0  0  0  0  0  0  0  0  0  0  0
   25.0680   25.0570  -11.1570 C   0  0  0  0  0  0  0  0  0  0  0  0
   24.7400   23.7150  -11.0170 C   0  0  0  0  0  0  0  0  0  0  0  0
   23.4240   23.2910  -11.1900 C   0  0  0  0  0  0  0  0  0  0  0  0
   22.4180   24.1910  -11.5150 C   0  0  0  0  0  0  0  0  0  0  0  0
   22.7350   25.5450  -11.6780 C   0  0  0  0  0  0  0  0  0  0  0  0
   21.6890   26.5100  -12.0590 C   0  0  0  0  0  0  0  0  0  0  0  0
   20.9960   26.4020  -13.2100 C   0  0  0  0  0  0  0  0  0  0  0  0
   19.9980   27.4610  -13.5220 C   0  0  0  0  0  0  0  0  0  0  0  0
   19.3270   27.4670  -14.5510 O   0  0  0  0  0  0  0  0  0  0  0  0
   19.8300   28.5350  -12.5360 C   0  0  0  0  0  0  0  0  0  0  0  0
   18.9220   29.5820  -12.7410 C   0  0  0  0  0  0  0  0  0  0  0  0
   18.7800   30.5870  -11.7890 C   0  0  0  0  0  0  0  0  0  0  0  0
   19.5490   30.5360  -10.6300 C   0  0  0  0  0  0  0  0  0  0  0  0
   20.4550   29.5010  -10.4150 C   0  0  0  0  0  0  0  0  0  0  0  0
   20.5970   28.4990  -11.3760 C   0  0  0  0  0  0  0  0  0  0  0  0
   21.5120   27.5110  -11.1180 O   0  0  0  0  0  0  0  0  0  0  0  0
   19.4450   31.4970   -9.6680 O   0  0  0  0  0  0  0  0  0  0  0  0
   18.1400   29.6820  -13.8610 O   0  0  0  0  0  0  0  0  0  0  0  0
   21.1430   25.3760  -14.1270 O   0  0  0  0  0  0  0  0  0  0  0  0
   23.1120   21.9690  -11.0470 O   0  0  0  0  0  0  0  0  0  0  0  0
   25.6780   22.7700  -10.7120 O   0  0  0  0  0  0  0  0  0  0  0  0
   24.3190   27.0260  -11.5870 H   0  0  0  0  0  0  0  0  0  0  0  0
   26.0850   25.4100  -11.0180 H   0  0  0  0  0  0  0  0  0  0  0  0
   21.4010   23.8320  -11.6450 H   0  0  0  0  0  0  0  0  0  0  0  0
   18.0720   31.3910  -11.9670 H   0  0  0  0  0  0  0  0  0  0  0  0
   21.0480   29.4790   -9.5040 H   0  0  0  0  0  0  0  0  0  0  0  0
   19.9790   31.2310   -8.9000 H   0  0  0  0  0  0  0  0  0  0  0  0
   17.3750   29.0710  -13.7560 H   0  0  0  0  0  0  0  0  0  0  0  0
   20.6570   24.5950  -13.8140 H   0  0  0  0  0  0  0  0  0  0  0  0
   22.1590   21.9150  -11.2600 H   0  0  0  0  0  0  0  0  0  0  0  0
   25.3170   21.8950  -10.9380 H   0  0  0  0  0  0  0  0  0  0  0  0
  1  2  1  0  0  0  0
  2 24  1  0  0  0  0
  2  3  2  0  0  0  0
  3 22  1  0  0  0  0
  4 21  1  0  0  0  0
  4  3  1  0  0  0  0
  5  4  2  0  0  0  0
  6  5  1  0  0  0  0
  6  1  2  0  0  0  0
  7  6  1  0  0  0  0
  7 17  1  0  0  0  0
  8  7  2  0  0  0  0
  9  8  1  0  0  0  0
  9 11  1  0  0  0  0
 10  9  2  0  0  0  0
 11 16  1  0  0  0  0
 12 11  2  0  0  0  0
 12 13  1  0  0  0  0
 13 14  2  0  0  0  0
 14 15  1  0  0  0  0
 14 18  1  0  0  0  0
 15 27  1  0  0  0  0
 16 17  1  0  0  0  0
 16 15  2  0  0  0  0
 18 28  1  0  0  0  0
 19 29  1  0  0  0  0
 19 12  1  0  0  0  0
 20 30  1  0  0  0  0
 20  8  1  0  0  0  0
 23  1  1  0  0  0  0
 25  5  1  0  0  0  0
 26 13  1  0  0  0  0
 31 21  1  0  0  0  0
 32 22  1  0  0  0  0
M  END
>  <Pose>
1

>  <Score>
-3.75

$$$$
