
 OpenBabel10152114563D

 32 34  0  0  0  0  0  0  0  0999 V2000
   26.6900   -3.1450   14.1440 C   0  0  0  0  0  0  0  0  0  0  0  0
   25.3120   -2.9180   14.0590 C   0  0  0  0  0  0  0  0  0  0  0  0
   24.5950   -3.5080   13.0270 C   0  0  0  0  0  0  0  0  0  0  0  0
   25.2420   -4.3040   12.0850 C   0  0  0  0  0  0  0  0  0  0  0  0
   26.6090   -4.5350   12.1610 C   0  0  0  0  0  0  0  0  0  0  0  0
   27.3450   -3.9640   13.2050 C   0  0  0  0  0  0  0  0  0  0  0  0
   28.7890   -4.2270   13.3250 C   0  0  0  0  0  0  0  0  0  0  0  0
   29.2780   -5.4610   13.5690 C   0  0  0  0  0  0  0  0  0  0  0  0
   30.7510   -5.6060   13.7220 C   0  0  0  0  0  0  0  0  0  0  0  0
   31.2960   -6.6800   13.9630 O   0  0  0  0  0  0  0  0  0  0  0  0
   31.5630   -4.3930   13.5750 C   0  0  0  0  0  0  0  0  0  0  0  0
   32.9570   -4.4240   13.7110 C   0  0  0  0  0  0  0  0  0  0  0  0
   33.7050   -3.2590   13.5640 C   0  0  0  0  0  0  0  0  0  0  0  0
   33.0500   -2.0650   13.2780 C   0  0  0  0  0  0  0  0  0  0  0  0
   31.6640   -2.0210   13.1420 C   0  0  0  0  0  0  0  0  0  0  0  0
   30.9200   -3.1910   13.2950 C   0  0  0  0  0  0  0  0  0  0  0  0
   29.5590   -3.0880   13.1620 O   0  0  0  0  0  0  0  0  0  0  0  0
   33.7390   -0.8990   13.1240 O   0  0  0  0  0  0  0  0  0  0  0  0
   33.6540   -5.5690   13.9910 O   0  0  0  0  0  0  0  0  0  0  0  0
   28.5090   -6.6050   13.6860 O   0  0  0  0  0  0  0  0  0  0  0  0
   24.5270   -4.8770   11.0730 O   0  0  0  0  0  0  0  0  0  0  0  0
   23.2450   -3.3370   12.8950 O   0  0  0  0  0  0  0  0  0  0  0  0
   27.2530   -2.6760   14.9500 H   0  0  0  0  0  0  0  0  0  0  0  0
   24.8290   -2.2870   14.7980 H   0  0  0  0  0  0  0  0  0  0  0  0
   27.0870   -5.1620   11.4130 H   0  0  0  0  0  0  0  0  0  0  0  0
   34.7840   -3.3040   13.6740 H   0  0  0  0  0  0  0  0  0  0  0  0
   31.1710   -1.0790   12.9190 H   0  0  0  0  0  0  0  0  0  0  0  0
   33.9580   -0.7860   12.1830 H   0  0  0  0  0  0  0  0  0  0  0  0
   33.6480   -6.1360   13.1850 H   0  0  0  0  0  0  0  0  0  0  0  0
   28.3500   -6.9750   12.8020 H   0  0  0  0  0  0  0  0  0  0  0  0
   24.2750   -5.7590   11.4140 H   0  0  0  0  0  0  0  0  0  0  0  0
   23.0810   -2.7910   12.1060 H   0  0  0  0  0  0  0  0  0  0  0  0
  1 23  1  0  0  0  0
  2  1  1  0  0  0  0
  2 24  1  0  0  0  0
  3  2  2  0  0  0  0
  4  5  2  0  0  0  0
  4  3  1  0  0  0  0
  5  6  1  0  0  0  0
  6  7  1  0  0  0  0
  6  1  2  0  0  0  0
  7  8  2  0  0  0  0
  8 20  1  0  0  0  0
  8  9  1  0  0  0  0
  9 10  2  0  0  0  0
 11 12  1  0  0  0  0
 11  9  1  0  0  0  0
 12 19  1  0  0  0  0
 13 26  1  0  0  0  0
 13 12  2  0  0  0  0
 14 13  1  0  0  0  0
 15 14  2  0  0  0  0
 15 16  1  0  0  0  0
 16 11  2  0  0  0  0
 17 16  1  0  0  0  0
 17  7  1  0  0  0  0
 18 14  1  0  0  0  0
 21 31  1  0  0  0  0
 21  4  1  0  0  0  0
 22  3  1  0  0  0  0
 25  5  1  0  0  0  0
 27 15  1  0  0  0  0
 28 18  1  0  0  0  0
 29 19  1  0  0  0  0
 30 20  1  0  0  0  0
 32 22  1  0  0  0  0
M  END
>  <Pose>
1

>  <Score>
-4.50

$$$$

 OpenBabel10152114563D

 32 34  0  0  0  0  0  0  0  0999 V2000
   29.2060   -3.8850   13.1250 C   0  0  0  0  0  0  0  0  0  0  0  0
   30.5520   -4.2630   13.1000 C   0  0  0  0  0  0  0  0  0  0  0  0
   30.8950   -5.5590   13.4640 C   0  0  0  0  0  0  0  0  0  0  0  0
   29.9120   -6.4630   13.8560 C   0  0  0  0  0  0  0  0  0  0  0  0
   28.5720   -6.0980   13.8840 C   0  0  0  0  0  0  0  0  0  0  0  0
   28.2060   -4.8010   13.5030 C   0  0  0  0  0  0  0  0  0  0  0  0
   26.7880   -4.4060   13.4900 C   0  0  0  0  0  0  0  0  0  0  0  0
   25.9450   -4.7840   12.5070 C   0  0  0  0  0  0  0  0  0  0  0  0
   24.5440   -4.2850   12.5640 C   0  0  0  0  0  0  0  0  0  0  0  0
   23.7020   -4.5550   11.7100 O   0  0  0  0  0  0  0  0  0  0  0  0
   24.1810   -3.4320   13.7010 C   0  0  0  0  0  0  0  0  0  0  0  0
   22.8910   -2.9050   13.8400 C   0  0  0  0  0  0  0  0  0  0  0  0
   22.5720   -2.1010   14.9310 C   0  0  0  0  0  0  0  0  0  0  0  0
   23.5520   -1.8310   15.8820 C   0  0  0  0  0  0  0  0  0  0  0  0
   24.8380   -2.3480   15.7550 C   0  0  0  0  0  0  0  0  0  0  0  0
   25.1530   -3.1490   14.6570 C   0  0  0  0  0  0  0  0  0  0  0  0
   26.4370   -3.6210   14.5760 O   0  0  0  0  0  0  0  0  0  0  0  0
   23.2870   -1.0490   16.9680 O   0  0  0  0  0  0  0  0  0  0  0  0
   21.8890   -3.1390   12.9360 O   0  0  0  0  0  0  0  0  0  0  0  0
   26.2860   -5.6050   11.4470 O   0  0  0  0  0  0  0  0  0  0  0  0
   30.2610   -7.7340   14.2140 O   0  0  0  0  0  0  0  0  0  0  0  0
   32.1900   -5.9950   13.4490 O   0  0  0  0  0  0  0  0  0  0  0  0
   28.9380   -2.8660   12.8470 H   0  0  0  0  0  0  0  0  0  0  0  0
   31.3040   -3.5400   12.8000 H   0  0  0  0  0  0  0  0  0  0  0  0
   27.8260   -6.8250   14.1930 H   0  0  0  0  0  0  0  0  0  0  0  0
   21.5670   -1.7010   15.0200 H   0  0  0  0  0  0  0  0  0  0  0  0
   25.5890   -2.1240   16.5070 H   0  0  0  0  0  0  0  0  0  0  0  0
   22.3560   -1.1710   17.2230 H   0  0  0  0  0  0  0  0  0  0  0  0
   22.2350   -2.9330   12.0360 H   0  0  0  0  0  0  0  0  0  0  0  0
   25.4750   -5.9460   11.0330 H   0  0  0  0  0  0  0  0  0  0  0  0
   30.0950   -8.2720   13.4140 H   0  0  0  0  0  0  0  0  0  0  0  0
   32.3320   -6.5100   12.6360 H   0  0  0  0  0  0  0  0  0  0  0  0
  1  6  1  0  0  0  0
  2  1  2  0  0  0  0
  2  3  1  0  0  0  0
  3  4  2  0  0  0  0
  4  5  1  0  0  0  0
  4 21  1  0  0  0  0
  5 25  1  0  0  0  0
  6  5  2  0  0  0  0
  7  6  1  0  0  0  0
  7 17  1  0  0  0  0
  8  9  1  0  0  0  0
  8  7  2  0  0  0  0
  9 11  1  0  0  0  0
 10  9  2  0  0  0  0
 11 12  2  0  0  0  0
 11 16  1  0  0  0  0
 12 13  1  0  0  0  0
 13 26  1  0  0  0  0
 13 14  2  0  0  0  0
 14 18  1  0  0  0  0
 15 14  1  0  0  0  0
 15 27  1  0  0  0  0
 16 15  2  0  0  0  0
 17 16  1  0  0  0  0
 18 28  1  0  0  0  0
 19 12  1  0  0  0  0
 20  8  1  0  0  0  0
 22  3  1  0  0  0  0
 23  1  1  0  0  0  0
 24  2  1  0  0  0  0
 29 19  1  0  0  0  0
 30 20  1  0  0  0  0
 31 21  1  0  0  0  0
 32 22  1  0  0  0  0
M  END
>  <Pose>
1

>  <Score>
-4.33

$$$$

 OpenBabel10152114563D

 32 34  0  0  0  0  0  0  0  0999 V2000
   27.1780   -3.5090   13.5830 C   0  0  0  0  0  0  0  0  0  0  0  0
   26.5980   -4.3640   12.6400 C   0  0  0  0  0  0  0  0  0  0  0  0
   25.2300   -4.2890   12.4140 C   0  0  0  0  0  0  0  0  0  0  0  0
   24.4470   -3.3830   13.1260 C   0  0  0  0  0  0  0  0  0  0  0  0
   25.0140   -2.5300   14.0640 C   0  0  0  0  0  0  0  0  0  0  0  0
   26.3940   -2.5790   14.2910 C   0  0  0  0  0  0  0  0  0  0  0  0
   27.0190   -1.6570   15.2550 C   0  0  0  0  0  0  0  0  0  0  0  0
   26.9480   -1.8520   16.5880 C   0  0  0  0  0  0  0  0  0  0  0  0
   27.5700   -0.8310   17.4730 C   0  0  0  0  0  0  0  0  0  0  0  0
   27.5460   -0.9040   18.7000 O   0  0  0  0  0  0  0  0  0  0  0  0
   28.2350    0.3040   16.8240 C   0  0  0  0  0  0  0  0  0  0  0  0
   28.8420    1.3220   17.5700 C   0  0  0  0  0  0  0  0  0  0  0  0
   29.4690    2.3870   16.9290 C   0  0  0  0  0  0  0  0  0  0  0  0
   29.4860    2.4250   15.5380 C   0  0  0  0  0  0  0  0  0  0  0  0
   28.8850    1.4190   14.7850 C   0  0  0  0  0  0  0  0  0  0  0  0
   28.2540    0.3570   15.4330 C   0  0  0  0  0  0  0  0  0  0  0  0
   27.6680   -0.5980   14.6430 O   0  0  0  0  0  0  0  0  0  0  0  0
   30.0880    3.4470   14.8650 O   0  0  0  0  0  0  0  0  0  0  0  0
   28.8570    1.3360   18.9390 O   0  0  0  0  0  0  0  0  0  0  0  0
   26.3370   -2.9350   17.1960 O   0  0  0  0  0  0  0  0  0  0  0  0
   23.1020   -3.3200   12.8980 O   0  0  0  0  0  0  0  0  0  0  0  0
   24.6040   -5.0870   11.4980 O   0  0  0  0  0  0  0  0  0  0  0  0
   28.2500   -3.5730   13.7650 H   0  0  0  0  0  0  0  0  0  0  0  0
   27.2240   -5.0690   12.1030 H   0  0  0  0  0  0  0  0  0  0  0  0
   24.3790   -1.8320   14.6040 H   0  0  0  0  0  0  0  0  0  0  0  0
   29.9330    3.1670   17.5250 H   0  0  0  0  0  0  0  0  0  0  0  0
   28.9080    1.4680   13.6990 H   0  0  0  0  0  0  0  0  0  0  0  0
   29.9540    3.3150   13.9100 H   0  0  0  0  0  0  0  0  0  0  0  0
   28.3210    0.5730   19.2580 H   0  0  0  0  0  0  0  0  0  0  0  0
   25.3750   -2.7970   17.2030 H   0  0  0  0  0  0  0  0  0  0  0  0
   23.0210   -3.0120   11.9730 H   0  0  0  0  0  0  0  0  0  0  0  0
   24.8950   -6.0040   11.6390 H   0  0  0  0  0  0  0  0  0  0  0  0
  1 23  1  0  0  0  0
  1  6  1  0  0  0  0
  2  1  2  0  0  0  0
  3  2  1  0  0  0  0
  3  4  2  0  0  0  0
  4  5  1  0  0  0  0
  5  6  2  0  0  0  0
  5 25  1  0  0  0  0
  6  7  1  0  0  0  0
  7  8  2  0  0  0  0
  8 20  1  0  0  0  0
  8  9  1  0  0  0  0
  9 10  2  0  0  0  0
 11  9  1  0  0  0  0
 11 12  1  0  0  0  0
 12 19  1  0  0  0  0
 13 26  1  0  0  0  0
 13 12  2  0  0  0  0
 14 13  1  0  0  0  0
 15 16  1  0  0  0  0
 15 14  2  0  0  0  0
 16 11  2  0  0  0  0
 17  7  1  0  0  0  0
 17 16  1  0  0  0  0
 18 14  1  0  0  0  0
 19 29  1  0  0  0  0
 20 30  1  0  0  0  0
 21  4  1  0  0  0  0
 22 32  1  0  0  0  0
 22  3  1  0  0  0  0
 24  2  1  0  0  0  0
 27 15  1  0  0  0  0
 28 18  1  0  0  0  0
 31 21  1  0  0  0  0
M  END
>  <Pose>
1

>  <Score>
-4.22

$$$$

 OpenBabel10152114563D

 32 34  0  0  0  0  0  0  0  0999 V2000
   22.5850   -0.6550   17.4410 C   0  0  0  0  0  0  0  0  0  0  0  0
   21.6500    0.1640   18.0810 C   0  0  0  0  0  0  0  0  0  0  0  0
   21.7940    1.5430   17.9990 C   0  0  0  0  0  0  0  0  0  0  0  0
   22.8620    2.0980   17.2980 C   0  0  0  0  0  0  0  0  0  0  0  0
   23.7960    1.2930   16.6590 C   0  0  0  0  0  0  0  0  0  0  0  0
   23.6560   -0.0990   16.7160 C   0  0  0  0  0  0  0  0  0  0  0  0
   24.6140   -0.9690   16.0130 C   0  0  0  0  0  0  0  0  0  0  0  0
   25.9230   -1.0040   16.3350 C   0  0  0  0  0  0  0  0  0  0  0  0
   26.8130   -1.8810   15.5260 C   0  0  0  0  0  0  0  0  0  0  0  0
   28.0230   -1.9720   15.7240 O   0  0  0  0  0  0  0  0  0  0  0  0
   26.1900   -2.6590   14.4490 C   0  0  0  0  0  0  0  0  0  0  0  0
   26.9440   -3.5050   13.6270 C   0  0  0  0  0  0  0  0  0  0  0  0
   26.3270   -4.2350   12.6140 C   0  0  0  0  0  0  0  0  0  0  0  0
   24.9530   -4.1130   12.4320 C   0  0  0  0  0  0  0  0  0  0  0  0
   24.1930   -3.2730   13.2420 C   0  0  0  0  0  0  0  0  0  0  0  0
   24.8180   -2.5420   14.2530 C   0  0  0  0  0  0  0  0  0  0  0  0
   24.0230   -1.7220   15.0120 O   0  0  0  0  0  0  0  0  0  0  0  0
   24.3050   -4.8070   11.4540 O   0  0  0  0  0  0  0  0  0  0  0  0
   28.2980   -3.6640   13.7610 O   0  0  0  0  0  0  0  0  0  0  0  0
   26.5030   -0.2840   17.3650 O   0  0  0  0  0  0  0  0  0  0  0  0
   22.9960    3.4550   17.2260 O   0  0  0  0  0  0  0  0  0  0  0  0
   20.9090    2.3990   18.5910 O   0  0  0  0  0  0  0  0  0  0  0  0
   22.4760   -1.7370   17.5120 H   0  0  0  0  0  0  0  0  0  0  0  0
   20.8310   -0.2890   18.6300 H   0  0  0  0  0  0  0  0  0  0  0  0
   24.6180    1.7540   16.1180 H   0  0  0  0  0  0  0  0  0  0  0  0
   26.9290   -4.8850   11.9860 H   0  0  0  0  0  0  0  0  0  0  0  0
   23.1210   -3.1910   13.0840 H   0  0  0  0  0  0  0  0  0  0  0  0
   24.4020   -5.7590   11.6280 H   0  0  0  0  0  0  0  0  0  0  0  0
   28.7420   -3.0340   13.1470 H   0  0  0  0  0  0  0  0  0  0  0  0
   27.4600   -0.2170   17.2080 H   0  0  0  0  0  0  0  0  0  0  0  0
   22.3590    3.8030   17.8830 H   0  0  0  0  0  0  0  0  0  0  0  0
   21.4130    3.0970   19.0440 H   0  0  0  0  0  0  0  0  0  0  0  0
  1 23  1  0  0  0  0
  1  2  1  0  0  0  0
  2 24  1  0  0  0  0
  3  2  2  0  0  0  0
  3 22  1  0  0  0  0
  4  3  1  0  0  0  0
  5  6  1  0  0  0  0
  5  4  2  0  0  0  0
  6  1  2  0  0  0  0
  7  8  2  0  0  0  0
  7  6  1  0  0  0  0
  8 20  1  0  0  0  0
  9 10  2  0  0  0  0
  9  8  1  0  0  0  0
 11  9  1  0  0  0  0
 12 19  1  0  0  0  0
 12 11  2  0  0  0  0
 13 12  1  0  0  0  0
 14 13  2  0  0  0  0
 14 15  1  0  0  0  0
 15 16  2  0  0  0  0
 16 11  1  0  0  0  0
 16 17  1  0  0  0  0
 17  7  1  0  0  0  0
 18 28  1  0  0  0  0
 18 14  1  0  0  0  0
 21  4  1  0  0  0  0
 21 31  1  0  0  0  0
 22 32  1  0  0  0  0
 25  5  1  0  0  0  0
 26 13  1  0  0  0  0
 27 15  1  0  0  0  0
 29 19  1  0  0  0  0
 30 20  1  0  0  0  0
M  END
>  <Pose>
1

>  <Score>
-4.18

$$$$

 OpenBabel10152114563D

 32 34  0  0  0  0  0  0  0  0999 V2000
   30.0160   -0.4430   15.6000 C   0  0  0  0  0  0  0  0  0  0  0  0
   30.7750    0.6160   16.1080 C   0  0  0  0  0  0  0  0  0  0  0  0
   30.4980    1.9080   15.6830 C   0  0  0  0  0  0  0  0  0  0  0  0
   29.4850    2.1420   14.7560 C   0  0  0  0  0  0  0  0  0  0  0  0
   28.7250    1.0980   14.2460 C   0  0  0  0  0  0  0  0  0  0  0  0
   28.9780   -0.2100   14.6780 C   0  0  0  0  0  0  0  0  0  0  0  0
   28.1590   -1.3270   14.1780 C   0  0  0  0  0  0  0  0  0  0  0  0
   28.5610   -2.1140   13.1590 C   0  0  0  0  0  0  0  0  0  0  0  0
   27.6320   -3.1820   12.6990 C   0  0  0  0  0  0  0  0  0  0  0  0
   27.8930   -3.9420   11.7690 O   0  0  0  0  0  0  0  0  0  0  0  0
   26.3530   -3.3090   13.4060 C   0  0  0  0  0  0  0  0  0  0  0  0
   25.4080   -4.2760   13.0420 C   0  0  0  0  0  0  0  0  0  0  0  0
   24.2020   -4.3770   13.7320 C   0  0  0  0  0  0  0  0  0  0  0  0
   23.9510   -3.5060   14.7880 C   0  0  0  0  0  0  0  0  0  0  0  0
   24.8830   -2.5400   15.1580 C   0  0  0  0  0  0  0  0  0  0  0  0
   26.0870   -2.4410   14.4610 C   0  0  0  0  0  0  0  0  0  0  0  0
   26.9610   -1.4630   14.8600 O   0  0  0  0  0  0  0  0  0  0  0  0
   22.7860   -3.5670   15.4930 O   0  0  0  0  0  0  0  0  0  0  0  0
   25.6020   -5.1580   12.0130 O   0  0  0  0  0  0  0  0  0  0  0  0
   29.7780   -2.0040   12.5090 O   0  0  0  0  0  0  0  0  0  0  0  0
   29.2230    3.4170   14.3430 O   0  0  0  0  0  0  0  0  0  0  0  0
   31.1940    2.9880   16.1490 O   0  0  0  0  0  0  0  0  0  0  0  0
   30.2380   -1.4580   15.9290 H   0  0  0  0  0  0  0  0  0  0  0  0
   31.5660    0.4110   16.8220 H   0  0  0  0  0  0  0  0  0  0  0  0
   27.9400    1.3100   13.5250 H   0  0  0  0  0  0  0  0  0  0  0  0
   23.4820   -5.1330   13.4340 H   0  0  0  0  0  0  0  0  0  0  0  0
   24.6680   -1.8680   15.9850 H   0  0  0  0  0  0  0  0  0  0  0  0
   22.1480   -4.1080   14.9980 H   0  0  0  0  0  0  0  0  0  0  0  0
   24.8150   -5.7510   11.9660 H   0  0  0  0  0  0  0  0  0  0  0  0
   29.6990   -1.3510   11.7940 H   0  0  0  0  0  0  0  0  0  0  0  0
   29.8480    3.5740   13.6080 H   0  0  0  0  0  0  0  0  0  0  0  0
   31.7450    3.3340   15.4260 H   0  0  0  0  0  0  0  0  0  0  0  0
  1 23  1  0  0  0  0
  1  2  1  0  0  0  0
  2 24  1  0  0  0  0
  3  2  2  0  0  0  0
  3 22  1  0  0  0  0
  4  3  1  0  0  0  0
  5  6  1  0  0  0  0
  5  4  2  0  0  0  0
  6  1  2  0  0  0  0
  7  6  1  0  0  0  0
  7 17  1  0  0  0  0
  8  7  2  0  0  0  0
  9  8  1  0  0  0  0
  9 11  1  0  0  0  0
 10  9  2  0  0  0  0
 11 16  1  0  0  0  0
 12 11  2  0  0  0  0
 12 13  1  0  0  0  0
 13 14  2  0  0  0  0
 14 15  1  0  0  0  0
 14 18  1  0  0  0  0
 15 27  1  0  0  0  0
 16 17  1  0  0  0  0
 16 15  2  0  0  0  0
 19 12  1  0  0  0  0
 20  8  1  0  0  0  0
 21  4  1  0  0  0  0
 25  5  1  0  0  0  0
 26 13  1  0  0  0  0
 28 18  1  0  0  0  0
 29 19  1  0  0  0  0
 30 20  1  0  0  0  0
 31 21  1  0  0  0  0
 32 22  1  0  0  0  0
M  END
>  <Pose>
1

>  <Score>
-4.15

$$$$
