
 OpenBabel10152114563D

 32 34  0  0  0  0  0  0  0  0999 V2000
   28.7500   19.6400   -4.0320 C   0  0  0  0  0  0  0  0  0  0  0  0
   27.5420   19.0870   -3.5960 C   0  0  0  0  0  0  0  0  0  0  0  0
   26.5660   18.7760   -4.5340 C   0  0  0  0  0  0  0  0  0  0  0  0
   26.7860   19.0210   -5.8870 C   0  0  0  0  0  0  0  0  0  0  0  0
   27.9830   19.5700   -6.3300 C   0  0  0  0  0  0  0  0  0  0  0  0
   28.9850   19.8730   -5.4000 C   0  0  0  0  0  0  0  0  0  0  0  0
   30.2750   20.4200   -5.8540 C   0  0  0  0  0  0  0  0  0  0  0  0
   31.3870   19.6620   -5.9430 C   0  0  0  0  0  0  0  0  0  0  0  0
   32.6490   20.3270   -6.3630 C   0  0  0  0  0  0  0  0  0  0  0  0
   33.7200   19.7320   -6.4590 O   0  0  0  0  0  0  0  0  0  0  0  0
   32.5830   21.7610   -6.6670 C   0  0  0  0  0  0  0  0  0  0  0  0
   33.7180   22.4800   -7.0620 C   0  0  0  0  0  0  0  0  0  0  0  0
   33.6270   23.8400   -7.3480 C   0  0  0  0  0  0  0  0  0  0  0  0
   32.3920   24.4730   -7.2390 C   0  0  0  0  0  0  0  0  0  0  0  0
   31.2560   23.7690   -6.8480 C   0  0  0  0  0  0  0  0  0  0  0  0
   31.3550   22.4080   -6.5580 C   0  0  0  0  0  0  0  0  0  0  0  0
   30.2080   21.7680   -6.1650 O   0  0  0  0  0  0  0  0  0  0  0  0
   32.2530   25.8020   -7.5100 O   0  0  0  0  0  0  0  0  0  0  0  0
   34.9570   21.9090   -7.1850 O   0  0  0  0  0  0  0  0  0  0  0  0
   31.4400   18.3050   -5.6750 O   0  0  0  0  0  0  0  0  0  0  0  0
   25.8190   18.7140   -6.8000 O   0  0  0  0  0  0  0  0  0  0  0  0
   25.3690   18.2220   -4.1750 O   0  0  0  0  0  0  0  0  0  0  0  0
   29.5120   19.8910   -3.2950 H   0  0  0  0  0  0  0  0  0  0  0  0
   27.3860   18.9120   -2.5360 H   0  0  0  0  0  0  0  0  0  0  0  0
   28.1280   19.7490   -7.3920 H   0  0  0  0  0  0  0  0  0  0  0  0
   34.5190   24.3790   -7.6510 H   0  0  0  0  0  0  0  0  0  0  0  0
   30.3020   24.2820   -6.7680 H   0  0  0  0  0  0  0  0  0  0  0  0
   31.8620   26.2400   -6.7350 H   0  0  0  0  0  0  0  0  0  0  0  0
   35.0490   21.2240   -6.4830 H   0  0  0  0  0  0  0  0  0  0  0  0
   31.2390   18.1570   -4.7360 H   0  0  0  0  0  0  0  0  0  0  0  0
   26.2020   18.9680   -7.6640 H   0  0  0  0  0  0  0  0  0  0  0  0
   25.4690   17.8160   -3.2970 H   0  0  0  0  0  0  0  0  0  0  0  0
  1  2  1  0  0  0  0
  1 23  1  0  0  0  0
  2 24  1  0  0  0  0
  3 22  1  0  0  0  0
  3  2  2  0  0  0  0
  4  3  1  0  0  0  0
  5  4  2  0  0  0  0
  5  6  1  0  0  0  0
  6  1  2  0  0  0  0
  7  6  1  0  0  0  0
  8  7  2  0  0  0  0
  8 20  1  0  0  0  0
  9  8  1  0  0  0  0
 10  9  2  0  0  0  0
 11 16  1  0  0  0  0
 11  9  1  0  0  0  0
 12 11  2  0  0  0  0
 13 14  2  0  0  0  0
 13 12  1  0  0  0  0
 14 15  1  0  0  0  0
 15 27  1  0  0  0  0
 15 16  2  0  0  0  0
 16 17  1  0  0  0  0
 17  7  1  0  0  0  0
 18 14  1  0  0  0  0
 18 28  1  0  0  0  0
 19 12  1  0  0  0  0
 19 29  1  0  0  0  0
 20 30  1  0  0  0  0
 21  4  1  0  0  0  0
 22 32  1  0  0  0  0
 25  5  1  0  0  0  0
 26 13  1  0  0  0  0
 31 21  1  0  0  0  0
M  END
>  <Pose>
2

>  <Score>
-4.54

$$$$

 OpenBabel10152114563D

 32 34  0  0  0  0  0  0  0  0999 V2000
   30.4330   22.3660   -3.2730 C   0  0  0  0  0  0  0  0  0  0  0  0
   30.2160   23.6770   -2.8350 C   0  0  0  0  0  0  0  0  0  0  0  0
   30.1310   24.6960   -3.7740 C   0  0  0  0  0  0  0  0  0  0  0  0
   30.2700   24.4160   -5.1310 C   0  0  0  0  0  0  0  0  0  0  0  0
   30.4850   23.1180   -5.5760 C   0  0  0  0  0  0  0  0  0  0  0  0
   30.5560   22.0760   -4.6450 C   0  0  0  0  0  0  0  0  0  0  0  0
   30.7460   20.6880   -5.0990 C   0  0  0  0  0  0  0  0  0  0  0  0
   29.8600   19.7110   -4.8190 C   0  0  0  0  0  0  0  0  0  0  0  0
   30.1750   18.3330   -5.2820 C   0  0  0  0  0  0  0  0  0  0  0  0
   29.4450   17.3690   -5.0640 O   0  0  0  0  0  0  0  0  0  0  0  0
   31.4240   18.1460   -6.0300 C   0  0  0  0  0  0  0  0  0  0  0  0
   31.8150   16.8860   -6.5010 C   0  0  0  0  0  0  0  0  0  0  0  0
   33.0040   16.7370   -7.2100 C   0  0  0  0  0  0  0  0  0  0  0  0
   33.7960   17.8570   -7.4470 C   0  0  0  0  0  0  0  0  0  0  0  0
   33.4180   19.1140   -6.9840 C   0  0  0  0  0  0  0  0  0  0  0  0
   32.2280   19.2560   -6.2690 C   0  0  0  0  0  0  0  0  0  0  0  0
   31.9120   20.5150   -5.8260 O   0  0  0  0  0  0  0  0  0  0  0  0
   34.9670   17.7610   -8.1380 O   0  0  0  0  0  0  0  0  0  0  0  0
   31.0750   15.7520   -6.2970 O   0  0  0  0  0  0  0  0  0  0  0  0
   28.6730   19.8950   -4.1310 O   0  0  0  0  0  0  0  0  0  0  0  0
   30.1870   25.4270   -6.0460 O   0  0  0  0  0  0  0  0  0  0  0  0
   29.9080   25.9950   -3.4120 O   0  0  0  0  0  0  0  0  0  0  0  0
   30.5070   21.5680   -2.5350 H   0  0  0  0  0  0  0  0  0  0  0  0
   30.1190   23.8750   -1.7720 H   0  0  0  0  0  0  0  0  0  0  0  0
   30.5890   22.9290   -6.6410 H   0  0  0  0  0  0  0  0  0  0  0  0
   33.2900   15.7520   -7.5660 H   0  0  0  0  0  0  0  0  0  0  0  0
   34.0510   19.9760   -7.1780 H   0  0  0  0  0  0  0  0  0  0  0  0
   34.7890   17.3550   -9.0030 H   0  0  0  0  0  0  0  0  0  0  0  0
   30.4260   15.9350   -5.5790 H   0  0  0  0  0  0  0  0  0  0  0  0
   28.8400   19.8110   -3.1780 H   0  0  0  0  0  0  0  0  0  0  0  0
   30.0700   26.2370   -5.5100 H   0  0  0  0  0  0  0  0  0  0  0  0
   30.7670   26.4450   -3.3390 H   0  0  0  0  0  0  0  0  0  0  0  0
  1  2  1  0  0  0  0
  1 23  1  0  0  0  0
  2 24  1  0  0  0  0
  3 22  1  0  0  0  0
  3  2  2  0  0  0  0
  4  3  1  0  0  0  0
  5  4  2  0  0  0  0
  5  6  1  0  0  0  0
  6  1  2  0  0  0  0
  7  8  2  0  0  0  0
  7  6  1  0  0  0  0
  8 20  1  0  0  0  0
  9 10  2  0  0  0  0
  9  8  1  0  0  0  0
 11  9  1  0  0  0  0
 12 19  1  0  0  0  0
 12 11  2  0  0  0  0
 13 12  1  0  0  0  0
 14 13  2  0  0  0  0
 14 15  1  0  0  0  0
 15 16  2  0  0  0  0
 16 11  1  0  0  0  0
 16 17  1  0  0  0  0
 17  7  1  0  0  0  0
 18 14  1  0  0  0  0
 19 29  1  0  0  0  0
 20 30  1  0  0  0  0
 21 31  1  0  0  0  0
 21  4  1  0  0  0  0
 22 32  1  0  0  0  0
 25  5  1  0  0  0  0
 26 13  1  0  0  0  0
 27 15  1  0  0  0  0
 28 18  1  0  0  0  0
M  END
>  <Pose>
1

>  <Score>
-4.45

$$$$

 OpenBabel10152114563D

 32 34  0  0  0  0  0  0  0  0999 V2000
   28.5530   19.4020   -6.9570 C   0  0  0  0  0  0  0  0  0  0  0  0
   27.2910   18.8950   -6.6310 C   0  0  0  0  0  0  0  0  0  0  0  0
   26.8950   18.8760   -5.3010 C   0  0  0  0  0  0  0  0  0  0  0  0
   27.7490   19.3450   -4.3050 C   0  0  0  0  0  0  0  0  0  0  0  0
   29.0040   19.8500   -4.6180 C   0  0  0  0  0  0  0  0  0  0  0  0
   29.4120   19.8950   -5.9560 C   0  0  0  0  0  0  0  0  0  0  0  0
   30.7240   20.4620   -6.3120 C   0  0  0  0  0  0  0  0  0  0  0  0
   31.8240   19.6950   -6.4590 C   0  0  0  0  0  0  0  0  0  0  0  0
   33.1100   20.3770   -6.7680 C   0  0  0  0  0  0  0  0  0  0  0  0
   34.1720   19.7740   -6.9040 O   0  0  0  0  0  0  0  0  0  0  0  0
   33.0780   21.8370   -6.9110 C   0  0  0  0  0  0  0  0  0  0  0  0
   34.2360   22.5710   -7.1920 C   0  0  0  0  0  0  0  0  0  0  0  0
   34.1780   23.9560   -7.3260 C   0  0  0  0  0  0  0  0  0  0  0  0
   32.9520   24.5990   -7.1770 C   0  0  0  0  0  0  0  0  0  0  0  0
   31.7940   23.8800   -6.8960 C   0  0  0  0  0  0  0  0  0  0  0  0
   31.8600   22.4930   -6.7600 C   0  0  0  0  0  0  0  0  0  0  0  0
   30.6910   21.8380   -6.4710 O   0  0  0  0  0  0  0  0  0  0  0  0
   32.8450   25.9530   -7.2990 O   0  0  0  0  0  0  0  0  0  0  0  0
   35.4670   21.9910   -7.3490 O   0  0  0  0  0  0  0  0  0  0  0  0
   31.8460   18.3160   -6.3440 O   0  0  0  0  0  0  0  0  0  0  0  0
   27.3510   19.3180   -2.9990 O   0  0  0  0  0  0  0  0  0  0  0  0
   25.6710   18.4050   -4.9170 O   0  0  0  0  0  0  0  0  0  0  0  0
   28.8660   19.4110   -8.0000 H   0  0  0  0  0  0  0  0  0  0  0  0
   26.6450   18.5260   -7.4210 H   0  0  0  0  0  0  0  0  0  0  0  0
   29.6490   20.2110   -3.8210 H   0  0  0  0  0  0  0  0  0  0  0  0
   35.0870   24.5070   -7.5430 H   0  0  0  0  0  0  0  0  0  0  0  0
   30.8470   24.4010   -6.7830 H   0  0  0  0  0  0  0  0  0  0  0  0
   32.1660   26.2700   -6.6800 H   0  0  0  0  0  0  0  0  0  0  0  0
   35.5170   21.2130   -6.7460 H   0  0  0  0  0  0  0  0  0  0  0  0
   30.9680   18.0050   -6.0670 H   0  0  0  0  0  0  0  0  0  0  0  0
   27.3160   18.3680   -2.7690 H   0  0  0  0  0  0  0  0  0  0  0  0
   25.7010   18.2080   -3.9650 H   0  0  0  0  0  0  0  0  0  0  0  0
  1  2  2  0  0  0  0
  1  6  1  0  0  0  0
  2  3  1  0  0  0  0
  3 22  1  0  0  0  0
  3  4  2  0  0  0  0
  4 21  1  0  0  0  0
  5  4  1  0  0  0  0
  5 25  1  0  0  0  0
  6  5  2  0  0  0  0
  7  6  1  0  0  0  0
  8 20  1  0  0  0  0
  8  7  2  0  0  0  0
  9  8  1  0  0  0  0
 10  9  2  0  0  0  0
 11  9  1  0  0  0  0
 11 16  1  0  0  0  0
 12 11  2  0  0  0  0
 13 12  1  0  0  0  0
 13 14  2  0  0  0  0
 14 15  1  0  0  0  0
 15 27  1  0  0  0  0
 15 16  2  0  0  0  0
 16 17  1  0  0  0  0
 17  7  1  0  0  0  0
 18 14  1  0  0  0  0
 18 28  1  0  0  0  0
 19 12  1  0  0  0  0
 19 29  1  0  0  0  0
 20 30  1  0  0  0  0
 21 31  1  0  0  0  0
 22 32  1  0  0  0  0
 23  1  1  0  0  0  0
 24  2  1  0  0  0  0
 26 13  1  0  0  0  0
M  END
>  <Pose>
2

>  <Score>
-4.40

$$$$
