
 OpenBabel10152114563D

 32 34  0  0  0  0  0  0  0  0999 V2000
   20.4420    2.9100   -0.3150 C   0  0  0  0  0  0  0  0  0  0  0  0
   20.7950    3.8360   -1.3020 C   0  0  0  0  0  0  0  0  0  0  0  0
   20.8570    5.1830   -0.9720 C   0  0  0  0  0  0  0  0  0  0  0  0
   20.5600    5.6050    0.3220 C   0  0  0  0  0  0  0  0  0  0  0  0
   20.2080    4.6940    1.3090 C   0  0  0  0  0  0  0  0  0  0  0  0
   20.1590    3.3300    0.9980 C   0  0  0  0  0  0  0  0  0  0  0  0
   19.8250    2.3440    2.0410 C   0  0  0  0  0  0  0  0  0  0  0  0
   18.5590    1.9380    2.2680 C   0  0  0  0  0  0  0  0  0  0  0  0
   18.3270    0.9780    3.3800 C   0  0  0  0  0  0  0  0  0  0  0  0
   17.2120    0.5590    3.6820 O   0  0  0  0  0  0  0  0  0  0  0  0
   19.5020    0.5290    4.1350 C   0  0  0  0  0  0  0  0  0  0  0  0
   19.3870   -0.3670    5.2060 C   0  0  0  0  0  0  0  0  0  0  0  0
   20.5190   -0.7800    5.9040 C   0  0  0  0  0  0  0  0  0  0  0  0
   21.7660   -0.2920    5.5210 C   0  0  0  0  0  0  0  0  0  0  0  0
   21.8930    0.6000    4.4590 C   0  0  0  0  0  0  0  0  0  0  0  0
   20.7540    1.0130    3.7670 C   0  0  0  0  0  0  0  0  0  0  0  0
   20.9370    1.9010    2.7380 O   0  0  0  0  0  0  0  0  0  0  0  0
   22.9030   -0.6670    6.1730 O   0  0  0  0  0  0  0  0  0  0  0  0
   18.1880   -0.8780    5.6250 O   0  0  0  0  0  0  0  0  0  0  0  0
   17.4560    2.3490    1.5400 O   0  0  0  0  0  0  0  0  0  0  0  0
   20.6210    6.9320    0.6350 O   0  0  0  0  0  0  0  0  0  0  0  0
   21.2080    6.1360   -1.8870 O   0  0  0  0  0  0  0  0  0  0  0  0
   20.3870    1.8540   -0.5770 H   0  0  0  0  0  0  0  0  0  0  0  0
   21.0140    3.4870   -2.3070 H   0  0  0  0  0  0  0  0  0  0  0  0
   19.9830    5.0510    2.3100 H   0  0  0  0  0  0  0  0  0  0  0  0
   20.4090   -1.4730    6.7310 H   0  0  0  0  0  0  0  0  0  0  0  0
   22.8750    0.9700    4.1770 H   0  0  0  0  0  0  0  0  0  0  0  0
   22.9930   -0.1320    6.9800 H   0  0  0  0  0  0  0  0  0  0  0  0
   17.9970   -0.5150    6.5210 H   0  0  0  0  0  0  0  0  0  0  0  0
   17.4340    1.8690    0.6950 H   0  0  0  0  0  0  0  0  0  0  0  0
   21.3760    7.2760    0.1160 H   0  0  0  0  0  0  0  0  0  0  0  0
   22.0390    6.5500   -1.5960 H   0  0  0  0  0  0  0  0  0  0  0  0
  1  6  1  0  0  0  0
  2  3  1  0  0  0  0
  2  1  2  0  0  0  0
  3  4  2  0  0  0  0
  4 21  1  0  0  0  0
  4  5  1  0  0  0  0
  5 25  1  0  0  0  0
  6  5  2  0  0  0  0
  6  7  1  0  0  0  0
  7  8  2  0  0  0  0
  7 17  1  0  0  0  0
  8  9  1  0  0  0  0
  9 10  2  0  0  0  0
  9 11  1  0  0  0  0
 11 12  1  0  0  0  0
 12 19  1  0  0  0  0
 12 13  2  0  0  0  0
 13 26  1  0  0  0  0
 14 13  1  0  0  0  0
 14 18  1  0  0  0  0
 15 14  2  0  0  0  0
 16 11  2  0  0  0  0
 16 15  1  0  0  0  0
 17 16  1  0  0  0  0
 18 28  1  0  0  0  0
 19 29  1  0  0  0  0
 20  8  1  0  0  0  0
 22 32  1  0  0  0  0
 22  3  1  0  0  0  0
 23  1  1  0  0  0  0
 24  2  1  0  0  0  0
 27 15  1  0  0  0  0
 30 20  1  0  0  0  0
 31 21  1  0  0  0  0
M  END
>  <Pose>
1

>  <Score>
-6.18

$$$$

 OpenBabel10152114563D

 32 34  0  0  0  0  0  0  0  0999 V2000
   20.9720    2.7790   -0.6630 C   0  0  0  0  0  0  0  0  0  0  0  0
   20.9900    3.6520   -1.7550 C   0  0  0  0  0  0  0  0  0  0  0  0
   20.8300    5.0140   -1.5320 C   0  0  0  0  0  0  0  0  0  0  0  0
   20.6440    5.4980   -0.2390 C   0  0  0  0  0  0  0  0  0  0  0  0
   20.6250    4.6390    0.8520 C   0  0  0  0  0  0  0  0  0  0  0  0
   20.8020    3.2650    0.6470 C   0  0  0  0  0  0  0  0  0  0  0  0
   20.8220    2.3420    1.7950 C   0  0  0  0  0  0  0  0  0  0  0  0
   19.7280    1.6600    2.1880 C   0  0  0  0  0  0  0  0  0  0  0  0
   19.8450    0.7930    3.3920 C   0  0  0  0  0  0  0  0  0  0  0  0
   18.9050    0.1440    3.8450 O   0  0  0  0  0  0  0  0  0  0  0  0
   21.1560    0.7320    4.0490 C   0  0  0  0  0  0  0  0  0  0  0  0
   21.3660   -0.0470    5.1940 C   0  0  0  0  0  0  0  0  0  0  0  0
   22.6200   -0.0900    5.7960 C   0  0  0  0  0  0  0  0  0  0  0  0
   23.6620    0.6490    5.2440 C   0  0  0  0  0  0  0  0  0  0  0  0
   23.4650    1.4290    4.1070 C   0  0  0  0  0  0  0  0  0  0  0  0
   22.2050    1.4710    3.5110 C   0  0  0  0  0  0  0  0  0  0  0  0
   22.0650    2.2640    2.4010 O   0  0  0  0  0  0  0  0  0  0  0  0
   24.9080    0.6390    5.7980 O   0  0  0  0  0  0  0  0  0  0  0  0
   20.3780   -0.7950    5.7790 O   0  0  0  0  0  0  0  0  0  0  0  0
   18.4990    1.7050    1.5530 O   0  0  0  0  0  0  0  0  0  0  0  0
   20.4860    6.8380   -0.0310 O   0  0  0  0  0  0  0  0  0  0  0  0
   20.8510    5.9210   -2.5530 O   0  0  0  0  0  0  0  0  0  0  0  0
   21.0900    1.7100   -0.8390 H   0  0  0  0  0  0  0  0  0  0  0  0
   21.1270    3.2540   -2.7550 H   0  0  0  0  0  0  0  0  0  0  0  0
   20.4790    5.0450    1.8500 H   0  0  0  0  0  0  0  0  0  0  0  0
   22.7630   -0.6990    6.6830 H   0  0  0  0  0  0  0  0  0  0  0  0
   24.2910    2.0000    3.6920 H   0  0  0  0  0  0  0  0  0  0  0  0
   24.8790    0.1320    6.6270 H   0  0  0  0  0  0  0  0  0  0  0  0
   20.0290   -0.2900    6.5500 H   0  0  0  0  0  0  0  0  0  0  0  0
   18.3350    0.8540    1.1130 H   0  0  0  0  0  0  0  0  0  0  0  0
   21.3940    7.2010   -0.0410 H   0  0  0  0  0  0  0  0  0  0  0  0
   21.6040    6.5220   -2.4150 H   0  0  0  0  0  0  0  0  0  0  0  0
  1  6  1  0  0  0  0
  2  3  1  0  0  0  0
  2  1  2  0  0  0  0
  3  4  2  0  0  0  0
  4 21  1  0  0  0  0
  4  5  1  0  0  0  0
  5 25  1  0  0  0  0
  6  5  2  0  0  0  0
  6  7  1  0  0  0  0
  7  8  2  0  0  0  0
  7 17  1  0  0  0  0
  8  9  1  0  0  0  0
  9 10  2  0  0  0  0
  9 11  1  0  0  0  0
 11 12  1  0  0  0  0
 12 19  1  0  0  0  0
 12 13  2  0  0  0  0
 13 26  1  0  0  0  0
 14 13  1  0  0  0  0
 14 18  1  0  0  0  0
 15 14  2  0  0  0  0
 16 11  2  0  0  0  0
 16 15  1  0  0  0  0
 17 16  1  0  0  0  0
 18 28  1  0  0  0  0
 19 29  1  0  0  0  0
 20  8  1  0  0  0  0
 22 32  1  0  0  0  0
 22  3  1  0  0  0  0
 23  1  1  0  0  0  0
 24  2  1  0  0  0  0
 27 15  1  0  0  0  0
 30 20  1  0  0  0  0
 31 21  1  0  0  0  0
M  END
>  <Pose>
1

>  <Score>
-6.12

$$$$

 OpenBabel10152114563D

 32 34  0  0  0  0  0  0  0  0999 V2000
   19.1720    3.6760   -0.5400 C   0  0  0  0  0  0  0  0  0  0  0  0
   19.8680    4.5210   -1.4110 C   0  0  0  0  0  0  0  0  0  0  0  0
   20.4260    5.6910   -0.9140 C   0  0  0  0  0  0  0  0  0  0  0  0
   20.2840    6.0220    0.4310 C   0  0  0  0  0  0  0  0  0  0  0  0
   19.5950    5.1900    1.3050 C   0  0  0  0  0  0  0  0  0  0  0  0
   19.0410    3.9970    0.8240 C   0  0  0  0  0  0  0  0  0  0  0  0
   18.3390    3.0840    1.7420 C   0  0  0  0  0  0  0  0  0  0  0  0
   16.9950    2.9870    1.7720 C   0  0  0  0  0  0  0  0  0  0  0  0
   16.3860    2.0710    2.7740 C   0  0  0  0  0  0  0  0  0  0  0  0
   15.1730    1.9230    2.8970 O   0  0  0  0  0  0  0  0  0  0  0  0
   17.3030    1.3240    3.6430 C   0  0  0  0  0  0  0  0  0  0  0  0
   16.8280    0.4440    4.6240 C   0  0  0  0  0  0  0  0  0  0  0  0
   17.7200   -0.2550    5.4340 C   0  0  0  0  0  0  0  0  0  0  0  0
   19.0870   -0.0680    5.2540 C   0  0  0  0  0  0  0  0  0  0  0  0
   19.5710    0.8050    4.2830 C   0  0  0  0  0  0  0  0  0  0  0  0
   18.6730    1.5060    3.4770 C   0  0  0  0  0  0  0  0  0  0  0  0
   19.2040    2.3610    2.5470 O   0  0  0  0  0  0  0  0  0  0  0  0
   19.9990   -0.7300    6.0220 O   0  0  0  0  0  0  0  0  0  0  0  0
   15.4950    0.2220    4.8450 O   0  0  0  0  0  0  0  0  0  0  0  0
   16.1350    3.6780    0.9360 O   0  0  0  0  0  0  0  0  0  0  0  0
   20.8340    7.1760    0.9090 O   0  0  0  0  0  0  0  0  0  0  0  0
   21.1280    6.5520   -1.7100 O   0  0  0  0  0  0  0  0  0  0  0  0
   18.7280    2.7620   -0.9320 H   0  0  0  0  0  0  0  0  0  0  0  0
   19.9590    4.2490   -2.4580 H   0  0  0  0  0  0  0  0  0  0  0  0
   19.5000    5.4730    2.3500 H   0  0  0  0  0  0  0  0  0  0  0  0
   17.3320   -0.9310    6.1890 H   0  0  0  0  0  0  0  0  0  0  0  0
   20.6420    0.9380    4.1580 H   0  0  0  0  0  0  0  0  0  0  0  0
   19.6470   -0.8120    6.9250 H   0  0  0  0  0  0  0  0  0  0  0  0
   15.2820    0.5270    5.7570 H   0  0  0  0  0  0  0  0  0  0  0  0
   16.5490    4.5170    0.6730 H   0  0  0  0  0  0  0  0  0  0  0  0
   21.3810    7.5150    0.1720 H   0  0  0  0  0  0  0  0  0  0  0  0
   21.4030    7.3130   -1.1700 H   0  0  0  0  0  0  0  0  0  0  0  0
  1  6  1  0  0  0  0
  2  3  1  0  0  0  0
  2  1  2  0  0  0  0
  3  4  2  0  0  0  0
  4 21  1  0  0  0  0
  4  5  1  0  0  0  0
  5 25  1  0  0  0  0
  6  5  2  0  0  0  0
  6  7  1  0  0  0  0
  7  8  2  0  0  0  0
  7 17  1  0  0  0  0
  8  9  1  0  0  0  0
  9 10  2  0  0  0  0
  9 11  1  0  0  0  0
 11 12  1  0  0  0  0
 12 19  1  0  0  0  0
 12 13  2  0  0  0  0
 13 26  1  0  0  0  0
 14 13  1  0  0  0  0
 14 18  1  0  0  0  0
 15 14  2  0  0  0  0
 16 11  2  0  0  0  0
 16 15  1  0  0  0  0
 17 16  1  0  0  0  0
 18 28  1  0  0  0  0
 19 29  1  0  0  0  0
 20  8  1  0  0  0  0
 22 32  1  0  0  0  0
 22  3  1  0  0  0  0
 23  1  1  0  0  0  0
 24  2  1  0  0  0  0
 27 15  1  0  0  0  0
 30 20  1  0  0  0  0
 31 21  1  0  0  0  0
M  END
>  <Pose>
2

>  <Score>
-5.78

$$$$

 OpenBabel10152114563D

 32 34  0  0  0  0  0  0  0  0999 V2000
   17.4980    2.3870    3.3520 C   0  0  0  0  0  0  0  0  0  0  0  0
   16.1850    2.5940    2.9180 C   0  0  0  0  0  0  0  0  0  0  0  0
   15.5170    1.5600    2.2760 C   0  0  0  0  0  0  0  0  0  0  0  0
   16.1510    0.3390    2.0590 C   0  0  0  0  0  0  0  0  0  0  0  0
   17.4550    0.1240    2.4860 C   0  0  0  0  0  0  0  0  0  0  0  0
   18.1380    1.1490    3.1520 C   0  0  0  0  0  0  0  0  0  0  0  0
   19.5070    0.9280    3.6460 C   0  0  0  0  0  0  0  0  0  0  0  0
   19.7680    0.1640    4.7260 C   0  0  0  0  0  0  0  0  0  0  0  0
   21.1840    0.0500    5.1700 C   0  0  0  0  0  0  0  0  0  0  0  0
   21.5270   -0.6050    6.1520 O   0  0  0  0  0  0  0  0  0  0  0  0
   22.1940    0.7650    4.3820 C   0  0  0  0  0  0  0  0  0  0  0  0
   23.5510    0.7280    4.7240 C   0  0  0  0  0  0  0  0  0  0  0  0
   24.4900    1.4130    3.9570 C   0  0  0  0  0  0  0  0  0  0  0  0
   24.0610    2.1330    2.8460 C   0  0  0  0  0  0  0  0  0  0  0  0
   22.7140    2.1780    2.4960 C   0  0  0  0  0  0  0  0  0  0  0  0
   21.7780    1.4930    3.2710 C   0  0  0  0  0  0  0  0  0  0  0  0
   20.4650    1.5830    2.8880 O   0  0  0  0  0  0  0  0  0  0  0  0
   24.9430    2.8190    2.0640 O   0  0  0  0  0  0  0  0  0  0  0  0
   24.0290    0.0360    5.8060 O   0  0  0  0  0  0  0  0  0  0  0  0
   18.8150   -0.5250    5.4540 O   0  0  0  0  0  0  0  0  0  0  0  0
   15.4860   -0.6700    1.4240 O   0  0  0  0  0  0  0  0  0  0  0  0
   14.2290    1.6930    1.8390 O   0  0  0  0  0  0  0  0  0  0  0  0
   18.0240    3.2010    3.8490 H   0  0  0  0  0  0  0  0  0  0  0  0
   15.7120    3.5550    3.0890 H   0  0  0  0  0  0  0  0  0  0  0  0
   17.9250   -0.8390    2.3050 H   0  0  0  0  0  0  0  0  0  0  0  0
   25.5380    1.3730    4.2400 H   0  0  0  0  0  0  0  0  0  0  0  0
   22.3990    2.7470    1.6250 H   0  0  0  0  0  0  0  0  0  0  0  0
   24.5960    3.7150    1.9140 H   0  0  0  0  0  0  0  0  0  0  0  0
   24.5810    0.6520    6.3420 H   0  0  0  0  0  0  0  0  0  0  0  0
   18.8680   -0.2550    6.3860 H   0  0  0  0  0  0  0  0  0  0  0  0
   15.8480   -0.6750    0.5160 H   0  0  0  0  0  0  0  0  0  0  0  0
   14.2480    1.9900    0.9130 H   0  0  0  0  0  0  0  0  0  0  0  0
  1 23  1  0  0  0  0
  2 24  1  0  0  0  0
  2  1  2  0  0  0  0
  3  2  1  0  0  0  0
  4  3  2  0  0  0  0
  4  5  1  0  0  0  0
  5  6  2  0  0  0  0
  6  1  1  0  0  0  0
  6  7  1  0  0  0  0
  7  8  2  0  0  0  0
  8  9  1  0  0  0  0
  8 20  1  0  0  0  0
  9 10  2  0  0  0  0
 11 12  1  0  0  0  0
 11  9  1  0  0  0  0
 12 19  1  0  0  0  0
 13 26  1  0  0  0  0
 13 12  2  0  0  0  0
 14 13  1  0  0  0  0
 15 14  2  0  0  0  0
 15 16  1  0  0  0  0
 16 11  2  0  0  0  0
 17 16  1  0  0  0  0
 17  7  1  0  0  0  0
 18 14  1  0  0  0  0
 19 29  1  0  0  0  0
 20 30  1  0  0  0  0
 21  4  1  0  0  0  0
 22  3  1  0  0  0  0
 25  5  1  0  0  0  0
 27 15  1  0  0  0  0
 28 18  1  0  0  0  0
 31 21  1  0  0  0  0
 32 22  1  0  0  0  0
M  END
>  <Pose>
1

>  <Score>
-5.65

$$$$
