
 OpenBabel10152114563D

 32 34  0  0  0  0  0  0  0  0999 V2000
   13.4430   11.3620   24.7610 C   0  0  0  0  0  0  0  0  0  0  0  0
   12.5700   10.5290   24.0540 C   0  0  0  0  0  0  0  0  0  0  0  0
   12.5960   10.5470   22.6660 C   0  0  0  0  0  0  0  0  0  0  0  0
   13.4730   11.3920   21.9900 C   0  0  0  0  0  0  0  0  0  0  0  0
   14.3440   12.2230   22.6820 C   0  0  0  0  0  0  0  0  0  0  0  0
   14.3440   12.2040   24.0820 C   0  0  0  0  0  0  0  0  0  0  0  0
   15.2860   13.0500   24.8340 C   0  0  0  0  0  0  0  0  0  0  0  0
   14.8700   14.0280   25.6650 C   0  0  0  0  0  0  0  0  0  0  0  0
   15.9070   14.8570   26.3350 C   0  0  0  0  0  0  0  0  0  0  0  0
   15.6360   15.7830   27.0960 O   0  0  0  0  0  0  0  0  0  0  0  0
   17.3110   14.5320   26.0550 C   0  0  0  0  0  0  0  0  0  0  0  0
   18.3600   15.2600   26.6300 C   0  0  0  0  0  0  0  0  0  0  0  0
   19.6830   14.9290   26.3500 C   0  0  0  0  0  0  0  0  0  0  0  0
   19.9480   13.8650   25.4930 C   0  0  0  0  0  0  0  0  0  0  0  0
   18.9130   13.1340   24.9150 C   0  0  0  0  0  0  0  0  0  0  0  0
   17.5890   13.4740   25.1960 C   0  0  0  0  0  0  0  0  0  0  0  0
   16.6110   12.7290   24.5890 O   0  0  0  0  0  0  0  0  0  0  0  0
   21.2270   13.5020   25.1890 O   0  0  0  0  0  0  0  0  0  0  0  0
   18.1580   16.3150   27.4790 O   0  0  0  0  0  0  0  0  0  0  0  0
   13.5460   14.3170   25.9420 O   0  0  0  0  0  0  0  0  0  0  0  0
   13.4880   11.4040   20.6240 O   0  0  0  0  0  0  0  0  0  0  0  0
   11.7780    9.7490   21.9170 O   0  0  0  0  0  0  0  0  0  0  0  0
   13.4170   11.3520   25.8500 H   0  0  0  0  0  0  0  0  0  0  0  0
   11.8880    9.8850   24.6000 H   0  0  0  0  0  0  0  0  0  0  0  0
   15.0180   12.8710   22.1280 H   0  0  0  0  0  0  0  0  0  0  0  0
   20.4820   15.5060   26.8050 H   0  0  0  0  0  0  0  0  0  0  0  0
   19.1400   12.3070   24.2480 H   0  0  0  0  0  0  0  0  0  0  0  0
   21.2030   12.7000   24.6400 H   0  0  0  0  0  0  0  0  0  0  0  0
   18.1520   17.1420   26.9430 H   0  0  0  0  0  0  0  0  0  0  0  0
   13.3130   15.1690   25.5360 H   0  0  0  0  0  0  0  0  0  0  0  0
   12.5540   11.2730   20.3640 H   0  0  0  0  0  0  0  0  0  0  0  0
   11.9370    9.9430   20.9770 H   0  0  0  0  0  0  0  0  0  0  0  0
  1 23  1  0  0  0  0
  2 24  1  0  0  0  0
  2  1  2  0  0  0  0
  3  2  1  0  0  0  0
  4  3  2  0  0  0  0
  4  5  1  0  0  0  0
  5  6  2  0  0  0  0
  6  1  1  0  0  0  0
  6  7  1  0  0  0  0
  7  8  2  0  0  0  0
  8 20  1  0  0  0  0
  8  9  1  0  0  0  0
  9 10  2  0  0  0  0
 11  9  1  0  0  0  0
 11 12  1  0  0  0  0
 12 19  1  0  0  0  0
 13 12  2  0  0  0  0
 13 26  1  0  0  0  0
 14 13  1  0  0  0  0
 15 16  1  0  0  0  0
 15 14  2  0  0  0  0
 16 11  2  0  0  0  0
 17  7  1  0  0  0  0
 17 16  1  0  0  0  0
 18 14  1  0  0  0  0
 21  4  1  0  0  0  0
 22  3  1  0  0  0  0
 25  5  1  0  0  0  0
 27 15  1  0  0  0  0
 28 18  1  0  0  0  0
 29 19  1  0  0  0  0
 30 20  1  0  0  0  0
 31 21  1  0  0  0  0
 32 22  1  0  0  0  0
M  END
>  <Pose>
1

>  <Score>
-5.06

$$$$

 OpenBabel10152114563D

 32 34  0  0  0  0  0  0  0  0999 V2000
   21.4140   12.5320   24.3480 C   0  0  0  0  0  0  0  0  0  0  0  0
   22.6300   12.1340   23.7840 C   0  0  0  0  0  0  0  0  0  0  0  0
   22.8860   12.4340   22.4530 C   0  0  0  0  0  0  0  0  0  0  0  0
   21.9390   13.1120   21.6900 C   0  0  0  0  0  0  0  0  0  0  0  0
   20.7280   13.5120   22.2400 C   0  0  0  0  0  0  0  0  0  0  0  0
   20.4610   13.2340   23.5860 C   0  0  0  0  0  0  0  0  0  0  0  0
   19.1990   13.6820   24.1980 C   0  0  0  0  0  0  0  0  0  0  0  0
   19.1630   14.6120   25.1740 C   0  0  0  0  0  0  0  0  0  0  0  0
   17.8380   14.9540   25.7590 C   0  0  0  0  0  0  0  0  0  0  0  0
   17.6970   15.7740   26.6640 O   0  0  0  0  0  0  0  0  0  0  0  0
   16.6650   14.2630   25.2120 C   0  0  0  0  0  0  0  0  0  0  0  0
   15.3760   14.5090   25.7020 C   0  0  0  0  0  0  0  0  0  0  0  0
   14.2790   13.8420   25.1630 C   0  0  0  0  0  0  0  0  0  0  0  0
   14.4810   12.9310   24.1310 C   0  0  0  0  0  0  0  0  0  0  0  0
   15.7580   12.6770   23.6360 C   0  0  0  0  0  0  0  0  0  0  0  0
   16.8530   13.3460   24.1830 C   0  0  0  0  0  0  0  0  0  0  0  0
   18.0880   13.0480   23.6660 O   0  0  0  0  0  0  0  0  0  0  0  0
   13.4380   12.2540   23.5710 O   0  0  0  0  0  0  0  0  0  0  0  0
   15.1190   15.3940   26.7150 O   0  0  0  0  0  0  0  0  0  0  0  0
   20.2700   15.2760   25.6720 O   0  0  0  0  0  0  0  0  0  0  0  0
   22.2000   13.4000   20.3810 O   0  0  0  0  0  0  0  0  0  0  0  0
   24.0600   12.0840   21.8460 O   0  0  0  0  0  0  0  0  0  0  0  0
   21.2100   12.2900   25.3910 H   0  0  0  0  0  0  0  0  0  0  0  0
   23.3510   11.5980   24.3940 H   0  0  0  0  0  0  0  0  0  0  0  0
   20.0080   14.0410   21.6210 H   0  0  0  0  0  0  0  0  0  0  0  0
   13.2880   14.0450   25.5570 H   0  0  0  0  0  0  0  0  0  0  0  0
   15.8950   11.9610   22.8300 H   0  0  0  0  0  0  0  0  0  0  0  0
   13.1150   12.7550   22.8030 H   0  0  0  0  0  0  0  0  0  0  0  0
   14.6310   16.1610   26.3340 H   0  0  0  0  0  0  0  0  0  0  0  0
   20.3520   15.0920   26.6230 H   0  0  0  0  0  0  0  0  0  0  0  0
   23.1640   13.5690   20.3510 H   0  0  0  0  0  0  0  0  0  0  0  0
   24.3950   12.8560   21.3580 H   0  0  0  0  0  0  0  0  0  0  0  0
  1 23  1  0  0  0  0
  2  1  1  0  0  0  0
  2 24  1  0  0  0  0
  3  2  2  0  0  0  0
  4  5  2  0  0  0  0
  4  3  1  0  0  0  0
  5  6  1  0  0  0  0
  6  7  1  0  0  0  0
  6  1  2  0  0  0  0
  7  8  2  0  0  0  0
  8 20  1  0  0  0  0
  8  9  1  0  0  0  0
  9 10  2  0  0  0  0
 11 12  1  0  0  0  0
 11  9  1  0  0  0  0
 12 19  1  0  0  0  0
 13 26  1  0  0  0  0
 13 12  2  0  0  0  0
 14 13  1  0  0  0  0
 15 14  2  0  0  0  0
 15 16  1  0  0  0  0
 16 11  2  0  0  0  0
 17 16  1  0  0  0  0
 17  7  1  0  0  0  0
 18 14  1  0  0  0  0
 20 30  1  0  0  0  0
 21  4  1  0  0  0  0
 22  3  1  0  0  0  0
 25  5  1  0  0  0  0
 27 15  1  0  0  0  0
 28 18  1  0  0  0  0
 29 19  1  0  0  0  0
 31 21  1  0  0  0  0
 32 22  1  0  0  0  0
M  END
>  <Pose>
1

>  <Score>
-4.92

$$$$

 OpenBabel10152114563D

 32 34  0  0  0  0  0  0  0  0999 V2000
   20.9480   13.1460   24.3170 C   0  0  0  0  0  0  0  0  0  0  0  0
   22.3310   13.0260   24.1460 C   0  0  0  0  0  0  0  0  0  0  0  0
   22.8500   12.9910   22.8590 C   0  0  0  0  0  0  0  0  0  0  0  0
   22.0020   13.0660   21.7550 C   0  0  0  0  0  0  0  0  0  0  0  0
   20.6280   13.1860   21.9150 C   0  0  0  0  0  0  0  0  0  0  0  0
   20.0890   13.2400   23.2060 C   0  0  0  0  0  0  0  0  0  0  0  0
   18.6380   13.4050   23.3960 C   0  0  0  0  0  0  0  0  0  0  0  0
   17.9720   14.4890   22.9470 C   0  0  0  0  0  0  0  0  0  0  0  0
   16.5160   14.5790   23.2390 C   0  0  0  0  0  0  0  0  0  0  0  0
   15.8200   15.5310   22.8910 O   0  0  0  0  0  0  0  0  0  0  0  0
   15.9100   13.4660   23.9790 C   0  0  0  0  0  0  0  0  0  0  0  0
   14.5490   13.4620   24.3100 C   0  0  0  0  0  0  0  0  0  0  0  0
   13.9980   12.3910   25.0110 C   0  0  0  0  0  0  0  0  0  0  0  0
   14.8180   11.3270   25.3740 C   0  0  0  0  0  0  0  0  0  0  0  0
   16.1720   11.3200   25.0510 C   0  0  0  0  0  0  0  0  0  0  0  0
   16.7190   12.3980   24.3530 C   0  0  0  0  0  0  0  0  0  0  0  0
   18.0600   12.3440   24.0730 O   0  0  0  0  0  0  0  0  0  0  0  0
   14.3240   10.2570   26.0600 O   0  0  0  0  0  0  0  0  0  0  0  0
   13.6970   14.4810   23.9780 O   0  0  0  0  0  0  0  0  0  0  0  0
   18.5430   15.5260   22.2310 O   0  0  0  0  0  0  0  0  0  0  0  0
   22.5240   13.0280   20.4940 O   0  0  0  0  0  0  0  0  0  0  0  0
   24.1920   12.8870   22.6230 O   0  0  0  0  0  0  0  0  0  0  0  0
   20.5400   13.1660   25.3270 H   0  0  0  0  0  0  0  0  0  0  0  0
   22.9730   12.9600   25.0180 H   0  0  0  0  0  0  0  0  0  0  0  0
   19.9910   13.2430   21.0360 H   0  0  0  0  0  0  0  0  0  0  0  0
   12.9420   12.4070   25.2590 H   0  0  0  0  0  0  0  0  0  0  0  0
   16.7960   10.4800   25.3450 H   0  0  0  0  0  0  0  0  0  0  0  0
   14.3700   10.4460   27.0130 H   0  0  0  0  0  0  0  0  0  0  0  0
   13.5850   15.0560   24.7710 H   0  0  0  0  0  0  0  0  0  0  0  0
   18.4450   15.3510   21.2810 H   0  0  0  0  0  0  0  0  0  0  0  0
   23.4350   13.3700   20.5910 H   0  0  0  0  0  0  0  0  0  0  0  0
   24.3950   13.3550   21.7940 H   0  0  0  0  0  0  0  0  0  0  0  0
  1 23  1  0  0  0  0
  2  1  1  0  0  0  0
  2 24  1  0  0  0  0
  3  2  2  0  0  0  0
  4  5  2  0  0  0  0
  4  3  1  0  0  0  0
  5  6  1  0  0  0  0
  6  7  1  0  0  0  0
  6  1  2  0  0  0  0
  7 17  1  0  0  0  0
  8  9  1  0  0  0  0
  8  7  2  0  0  0  0
  9 11  1  0  0  0  0
 10  9  2  0  0  0  0
 11 12  2  0  0  0  0
 11 16  1  0  0  0  0
 12 13  1  0  0  0  0
 13 26  1  0  0  0  0
 13 14  2  0  0  0  0
 14 18  1  0  0  0  0
 15 27  1  0  0  0  0
 15 14  1  0  0  0  0
 16 15  2  0  0  0  0
 17 16  1  0  0  0  0
 18 28  1  0  0  0  0
 19 12  1  0  0  0  0
 19 29  1  0  0  0  0
 20  8  1  0  0  0  0
 21 31  1  0  0  0  0
 21  4  1  0  0  0  0
 22  3  1  0  0  0  0
 25  5  1  0  0  0  0
 30 20  1  0  0  0  0
 32 22  1  0  0  0  0
M  END
>  <Pose>
1

>  <Score>
-4.80

$$$$

 OpenBabel10152114563D

 32 34  0  0  0  0  0  0  0  0999 V2000
   13.3710   12.5510   24.4880 C   0  0  0  0  0  0  0  0  0  0  0  0
   12.4380   11.5700   24.1360 C   0  0  0  0  0  0  0  0  0  0  0  0
   12.4610   11.0490   22.8500 C   0  0  0  0  0  0  0  0  0  0  0  0
   13.3940   11.5060   21.9220 C   0  0  0  0  0  0  0  0  0  0  0  0
   14.3240   12.4790   22.2610 C   0  0  0  0  0  0  0  0  0  0  0  0
   14.3280   13.0020   23.5590 C   0  0  0  0  0  0  0  0  0  0  0  0
   15.3310   14.0080   23.9500 C   0  0  0  0  0  0  0  0  0  0  0  0
   15.6990   15.0130   23.1300 C   0  0  0  0  0  0  0  0  0  0  0  0
   16.7590   15.9430   23.6040 C   0  0  0  0  0  0  0  0  0  0  0  0
   17.1800   16.8800   22.9290 O   0  0  0  0  0  0  0  0  0  0  0  0
   17.3100   15.7050   24.9430 C   0  0  0  0  0  0  0  0  0  0  0  0
   18.3170   16.5190   25.4760 C   0  0  0  0  0  0  0  0  0  0  0  0
   18.8210   16.2740   26.7510 C   0  0  0  0  0  0  0  0  0  0  0  0
   18.3080   15.2100   27.4880 C   0  0  0  0  0  0  0  0  0  0  0  0
   17.3070   14.3930   26.9690 C   0  0  0  0  0  0  0  0  0  0  0  0
   16.8100   14.6420   25.6890 C   0  0  0  0  0  0  0  0  0  0  0  0
   15.8340   13.7990   25.2230 O   0  0  0  0  0  0  0  0  0  0  0  0
   18.7680   14.9310   28.7410 O   0  0  0  0  0  0  0  0  0  0  0  0
   18.8590   17.5780   24.7960 O   0  0  0  0  0  0  0  0  0  0  0  0
   15.1620   15.2460   21.8760 O   0  0  0  0  0  0  0  0  0  0  0  0
   13.4050   10.9880   20.6580 O   0  0  0  0  0  0  0  0  0  0  0  0
   11.5850   10.0810   22.4470 O   0  0  0  0  0  0  0  0  0  0  0  0
   13.3490   12.9650   25.4960 H   0  0  0  0  0  0  0  0  0  0  0  0
   11.7140   11.2350   24.8720 H   0  0  0  0  0  0  0  0  0  0  0  0
   15.0410   12.8160   21.5170 H   0  0  0  0  0  0  0  0  0  0  0  0
   19.6030   16.9150   27.1460 H   0  0  0  0  0  0  0  0  0  0  0  0
   16.9200   13.5680   27.5600 H   0  0  0  0  0  0  0  0  0  0  0  0
   18.6210   13.9870   28.9260 H   0  0  0  0  0  0  0  0  0  0  0  0
   18.1280   18.1950   24.5590 H   0  0  0  0  0  0  0  0  0  0  0  0
   14.3160   14.7740   21.7980 H   0  0  0  0  0  0  0  0  0  0  0  0
   12.5050   11.1540   20.3130 H   0  0  0  0  0  0  0  0  0  0  0  0
   11.7720    9.8650   21.5170 H   0  0  0  0  0  0  0  0  0  0  0  0
  1 23  1  0  0  0  0
  2  1  1  0  0  0  0
  2 24  1  0  0  0  0
  3  2  2  0  0  0  0
  4  5  2  0  0  0  0
  4  3  1  0  0  0  0
  5  6  1  0  0  0  0
  6  7  1  0  0  0  0
  6  1  2  0  0  0  0
  7 17  1  0  0  0  0
  8  9  1  0  0  0  0
  8  7  2  0  0  0  0
  9 11  1  0  0  0  0
 10  9  2  0  0  0  0
 11 12  2  0  0  0  0
 11 16  1  0  0  0  0
 12 13  1  0  0  0  0
 13 26  1  0  0  0  0
 13 14  2  0  0  0  0
 14 18  1  0  0  0  0
 15 14  1  0  0  0  0
 15 27  1  0  0  0  0
 16 15  2  0  0  0  0
 17 16  1  0  0  0  0
 18 28  1  0  0  0  0
 19 12  1  0  0  0  0
 20  8  1  0  0  0  0
 21  4  1  0  0  0  0
 22  3  1  0  0  0  0
 25  5  1  0  0  0  0
 29 19  1  0  0  0  0
 30 20  1  0  0  0  0
 31 21  1  0  0  0  0
 32 22  1  0  0  0  0
M  END
>  <Pose>
1

>  <Score>
-4.80

$$$$

 OpenBabel10152114563D

 32 34  0  0  0  0  0  0  0  0999 V2000
   14.1320   12.5750   22.4570 C   0  0  0  0  0  0  0  0  0  0  0  0
   13.3630   11.7560   21.6230 C   0  0  0  0  0  0  0  0  0  0  0  0
   13.1400   10.4370   21.9940 C   0  0  0  0  0  0  0  0  0  0  0  0
   13.6840    9.9350   23.1740 C   0  0  0  0  0  0  0  0  0  0  0  0
   14.4480   10.7400   24.0090 C   0  0  0  0  0  0  0  0  0  0  0  0
   14.6680   12.0780   23.6600 C   0  0  0  0  0  0  0  0  0  0  0  0
   15.4440   12.9580   24.5510 C   0  0  0  0  0  0  0  0  0  0  0  0
   14.8590   13.7200   25.4970 C   0  0  0  0  0  0  0  0  0  0  0  0
   15.7320   14.6120   26.3080 C   0  0  0  0  0  0  0  0  0  0  0  0
   15.2990   15.3590   27.1820 O   0  0  0  0  0  0  0  0  0  0  0  0
   17.1710   14.5780   26.0260 C   0  0  0  0  0  0  0  0  0  0  0  0
   18.0740   15.3860   26.7280 C   0  0  0  0  0  0  0  0  0  0  0  0
   19.4370   15.3310   26.4440 C   0  0  0  0  0  0  0  0  0  0  0  0
   19.8870   14.4620   25.4550 C   0  0  0  0  0  0  0  0  0  0  0  0
   18.9990   13.6540   24.7500 C   0  0  0  0  0  0  0  0  0  0  0  0
   17.6350   13.7160   25.0370 C   0  0  0  0  0  0  0  0  0  0  0  0
   16.8050   12.9080   24.3030 O   0  0  0  0  0  0  0  0  0  0  0  0
   21.2110   14.3730   25.1420 O   0  0  0  0  0  0  0  0  0  0  0  0
   17.6870   16.2590   27.7100 O   0  0  0  0  0  0  0  0  0  0  0  0
   13.5030   13.7340   25.7730 O   0  0  0  0  0  0  0  0  0  0  0  0
   13.4600    8.6350   23.5270 O   0  0  0  0  0  0  0  0  0  0  0  0
   12.3880    9.5880   21.2300 O   0  0  0  0  0  0  0  0  0  0  0  0
   14.3120   13.6080   22.1630 H   0  0  0  0  0  0  0  0  0  0  0  0
   12.9560   12.1640   20.7030 H   0  0  0  0  0  0  0  0  0  0  0  0
   14.8590   10.3230   24.9250 H   0  0  0  0  0  0  0  0  0  0  0  0
   20.1200   15.9670   26.9980 H   0  0  0  0  0  0  0  0  0  0  0  0
   19.3710   12.9820   23.9810 H   0  0  0  0  0  0  0  0  0  0  0  0
   21.3910   13.4850   24.7880 H   0  0  0  0  0  0  0  0  0  0  0  0
   18.1210   17.1260   27.5360 H   0  0  0  0  0  0  0  0  0  0  0  0
   13.1080   14.5360   25.3920 H   0  0  0  0  0  0  0  0  0  0  0  0
   13.3760    8.6530   24.5020 H   0  0  0  0  0  0  0  0  0  0  0  0
   12.5610    9.7850   20.2930 H   0  0  0  0  0  0  0  0  0  0  0  0
  1  6  1  0  0  0  0
  2  3  1  0  0  0  0
  2  1  2  0  0  0  0
  3  4  2  0  0  0  0
  4 21  1  0  0  0  0
  4  5  1  0  0  0  0
  5 25  1  0  0  0  0
  6  5  2  0  0  0  0
  6  7  1  0  0  0  0
  7  8  2  0  0  0  0
  8 20  1  0  0  0  0
  8  9  1  0  0  0  0
  9 10  2  0  0  0  0
 11  9  1  0  0  0  0
 11 12  1  0  0  0  0
 12 19  1  0  0  0  0
 13 12  2  0  0  0  0
 13 26  1  0  0  0  0
 14 13  1  0  0  0  0
 15 16  1  0  0  0  0
 15 14  2  0  0  0  0
 16 11  2  0  0  0  0
 17  7  1  0  0  0  0
 17 16  1  0  0  0  0
 18 14  1  0  0  0  0
 21 31  1  0  0  0  0
 22  3  1  0  0  0  0
 23  1  1  0  0  0  0
 24  2  1  0  0  0  0
 27 15  1  0  0  0  0
 28 18  1  0  0  0  0
 29 19  1  0  0  0  0
 30 20  1  0  0  0  0
 32 22  1  0  0  0  0
M  END
>  <Pose>
1

>  <Score>
-4.38

$$$$
