
 OpenBabel10152114563D

 32 34  0  0  0  0  0  0  0  0999 V2000
   25.6020    6.4640   -4.7000 C   0  0  0  0  0  0  0  0  0  0  0  0
   26.6300    5.8570   -5.4280 C   0  0  0  0  0  0  0  0  0  0  0  0
   26.3790    5.4390   -6.7280 C   0  0  0  0  0  0  0  0  0  0  0  0
   25.1170    5.6130   -7.2920 C   0  0  0  0  0  0  0  0  0  0  0  0
   24.0900    6.2140   -6.5770 C   0  0  0  0  0  0  0  0  0  0  0  0
   24.3300    6.6580   -5.2720 C   0  0  0  0  0  0  0  0  0  0  0  0
   23.2650    7.3310   -4.5100 C   0  0  0  0  0  0  0  0  0  0  0  0
   23.3550    8.6230   -4.1340 C   0  0  0  0  0  0  0  0  0  0  0  0
   22.2440    9.1900   -3.3230 C   0  0  0  0  0  0  0  0  0  0  0  0
   22.2370   10.3490   -2.9140 O   0  0  0  0  0  0  0  0  0  0  0  0
   21.1200    8.3000   -3.0100 C   0  0  0  0  0  0  0  0  0  0  0  0
   20.0310    8.7360   -2.2450 C   0  0  0  0  0  0  0  0  0  0  0  0
   18.9760    7.8720   -1.9650 C   0  0  0  0  0  0  0  0  0  0  0  0
   19.0180    6.5710   -2.4580 C   0  0  0  0  0  0  0  0  0  0  0  0
   20.0950    6.1250   -3.2190 C   0  0  0  0  0  0  0  0  0  0  0  0
   21.1520    6.9950   -3.4920 C   0  0  0  0  0  0  0  0  0  0  0  0
   22.1920    6.5000   -4.2350 O   0  0  0  0  0  0  0  0  0  0  0  0
   18.0080    5.6880   -2.2110 O   0  0  0  0  0  0  0  0  0  0  0  0
   19.9380   10.0040   -1.7350 O   0  0  0  0  0  0  0  0  0  0  0  0
   24.4080    9.4650   -4.4490 O   0  0  0  0  0  0  0  0  0  0  0  0
   24.8810    5.1960   -8.5710 O   0  0  0  0  0  0  0  0  0  0  0  0
   27.3440    4.8520   -7.4980 O   0  0  0  0  0  0  0  0  0  0  0  0
   25.7970    6.7850   -3.6770 H   0  0  0  0  0  0  0  0  0  0  0  0
   27.6030    5.7230   -4.9670 H   0  0  0  0  0  0  0  0  0  0  0  0
   23.1160    6.3380   -7.0430 H   0  0  0  0  0  0  0  0  0  0  0  0
   18.1420    8.2280   -1.3690 H   0  0  0  0  0  0  0  0  0  0  0  0
   20.1090    5.1060   -3.5940 H   0  0  0  0  0  0  0  0  0  0  0  0
   17.6710    5.8410   -1.3110 H   0  0  0  0  0  0  0  0  0  0  0  0
   20.3660   10.0090   -0.8470 H   0  0  0  0  0  0  0  0  0  0  0  0
   24.4460   10.1860   -3.7980 H   0  0  0  0  0  0  0  0  0  0  0  0
   24.5400    4.2840   -8.4760 H   0  0  0  0  0  0  0  0  0  0  0  0
   27.0350    3.9650   -7.7530 H   0  0  0  0  0  0  0  0  0  0  0  0
  1 23  1  0  0  0  0
  2 24  1  0  0  0  0
  2  1  2  0  0  0  0
  3  2  1  0  0  0  0
  4  3  2  0  0  0  0
  4  5  1  0  0  0  0
  5  6  2  0  0  0  0
  6  1  1  0  0  0  0
  6  7  1  0  0  0  0
  7 17  1  0  0  0  0
  7  8  2  0  0  0  0
  8  9  1  0  0  0  0
  9 11  1  0  0  0  0
  9 10  2  0  0  0  0
 11 12  1  0  0  0  0
 12 13  2  0  0  0  0
 12 19  1  0  0  0  0
 13 26  1  0  0  0  0
 14 18  1  0  0  0  0
 14 13  1  0  0  0  0
 15 14  2  0  0  0  0
 16 15  1  0  0  0  0
 16 11  2  0  0  0  0
 17 16  1  0  0  0  0
 18 28  1  0  0  0  0
 19 29  1  0  0  0  0
 20  8  1  0  0  0  0
 20 30  1  0  0  0  0
 21 31  1  0  0  0  0
 21  4  1  0  0  0  0
 22  3  1  0  0  0  0
 25  5  1  0  0  0  0
 27 15  1  0  0  0  0
 32 22  1  0  0  0  0
M  END
>  <Pose>
1

>  <Score>
-5.09

$$$$

 OpenBabel10152114563D

 32 34  0  0  0  0  0  0  0  0999 V2000
   19.6650    7.6170   -3.6700 C   0  0  0  0  0  0  0  0  0  0  0  0
   18.3230    7.7300   -3.2950 C   0  0  0  0  0  0  0  0  0  0  0  0
   17.8330    6.9060   -2.2900 C   0  0  0  0  0  0  0  0  0  0  0  0
   18.6660    5.9750   -1.6740 C   0  0  0  0  0  0  0  0  0  0  0  0
   20.0010    5.8560   -2.0400 C   0  0  0  0  0  0  0  0  0  0  0  0
   20.5160    6.6910   -3.0380 C   0  0  0  0  0  0  0  0  0  0  0  0
   21.9370    6.6060   -3.4140 C   0  0  0  0  0  0  0  0  0  0  0  0
   22.4770    5.4870   -3.9410 C   0  0  0  0  0  0  0  0  0  0  0  0
   23.9350    5.4920   -4.2360 C   0  0  0  0  0  0  0  0  0  0  0  0
   24.5280    4.5210   -4.6990 O   0  0  0  0  0  0  0  0  0  0  0  0
   24.6730    6.7280   -3.9490 C   0  0  0  0  0  0  0  0  0  0  0  0
   26.0500    6.8290   -4.1840 C   0  0  0  0  0  0  0  0  0  0  0  0
   26.7260    8.0140   -3.9060 C   0  0  0  0  0  0  0  0  0  0  0  0
   26.0150    9.0960   -3.3950 C   0  0  0  0  0  0  0  0  0  0  0  0
   24.6460    9.0060   -3.1560 C   0  0  0  0  0  0  0  0  0  0  0  0
   23.9750    7.8150   -3.4330 C   0  0  0  0  0  0  0  0  0  0  0  0
   22.6310    7.7790   -3.1670 O   0  0  0  0  0  0  0  0  0  0  0  0
   26.6330   10.2770   -3.1070 O   0  0  0  0  0  0  0  0  0  0  0  0
   26.7990    5.7990   -4.6860 O   0  0  0  0  0  0  0  0  0  0  0  0
   21.7730    4.3310   -4.2290 O   0  0  0  0  0  0  0  0  0  0  0  0
   18.1730    5.1690   -0.6880 O   0  0  0  0  0  0  0  0  0  0  0  0
   16.5350    6.9750   -1.8670 O   0  0  0  0  0  0  0  0  0  0  0  0
   20.0470    8.2590   -4.4640 H   0  0  0  0  0  0  0  0  0  0  0  0
   17.6880    8.4550   -3.7930 H   0  0  0  0  0  0  0  0  0  0  0  0
   20.6280    5.1220   -1.5410 H   0  0  0  0  0  0  0  0  0  0  0  0
   27.7940    8.0730   -4.0940 H   0  0  0  0  0  0  0  0  0  0  0  0
   24.1090    9.8620   -2.7550 H   0  0  0  0  0  0  0  0  0  0  0  0
   25.9690   10.9880   -3.1150 H   0  0  0  0  0  0  0  0  0  0  0  0
   27.5730    5.6650   -4.0900 H   0  0  0  0  0  0  0  0  0  0  0  0
   21.1430    4.5120   -4.9460 H   0  0  0  0  0  0  0  0  0  0  0  0
   17.5900    5.7500   -0.1600 H   0  0  0  0  0  0  0  0  0  0  0  0
   16.5320    7.1330   -0.9070 H   0  0  0  0  0  0  0  0  0  0  0  0
  1  2  2  0  0  0  0
  1  6  1  0  0  0  0
  2  3  1  0  0  0  0
  3 22  1  0  0  0  0
  3  4  2  0  0  0  0
  4 21  1  0  0  0  0
  5  4  1  0  0  0  0
  5 25  1  0  0  0  0
  6  5  2  0  0  0  0
  7 17  1  0  0  0  0
  7  6  1  0  0  0  0
  8  7  2  0  0  0  0
  9 11  1  0  0  0  0
  9  8  1  0  0  0  0
 10  9  2  0  0  0  0
 11 16  1  0  0  0  0
 12 11  2  0  0  0  0
 12 13  1  0  0  0  0
 13 14  2  0  0  0  0
 14 15  1  0  0  0  0
 14 18  1  0  0  0  0
 15 27  1  0  0  0  0
 16 17  1  0  0  0  0
 16 15  2  0  0  0  0
 19 12  1  0  0  0  0
 19 29  1  0  0  0  0
 20  8  1  0  0  0  0
 21 31  1  0  0  0  0
 22 32  1  0  0  0  0
 23  1  1  0  0  0  0
 24  2  1  0  0  0  0
 26 13  1  0  0  0  0
 28 18  1  0  0  0  0
 30 20  1  0  0  0  0
M  END
>  <Pose>
2

>  <Score>
-4.66

$$$$

 OpenBabel10152114563D

 32 34  0  0  0  0  0  0  0  0999 V2000
   19.8000    7.8450   -4.0190 C   0  0  0  0  0  0  0  0  0  0  0  0
   18.5100    7.7710   -3.4860 C   0  0  0  0  0  0  0  0  0  0  0  0
   18.3510    7.4230   -2.1510 C   0  0  0  0  0  0  0  0  0  0  0  0
   19.4620    7.1430   -1.3600 C   0  0  0  0  0  0  0  0  0  0  0  0
   20.7480    7.2150   -1.8800 C   0  0  0  0  0  0  0  0  0  0  0  0
   20.9280    7.5820   -3.2190 C   0  0  0  0  0  0  0  0  0  0  0  0
   22.2850    7.7000   -3.7790 C   0  0  0  0  0  0  0  0  0  0  0  0
   23.1590    8.6350   -3.3550 C   0  0  0  0  0  0  0  0  0  0  0  0
   24.4860    8.6990   -4.0250 C   0  0  0  0  0  0  0  0  0  0  0  0
   25.3470    9.5240   -3.7280 O   0  0  0  0  0  0  0  0  0  0  0  0
   24.7490    7.7220   -5.0870 C   0  0  0  0  0  0  0  0  0  0  0  0
   25.9640    7.7060   -5.7840 C   0  0  0  0  0  0  0  0  0  0  0  0
   26.1890    6.7660   -6.7860 C   0  0  0  0  0  0  0  0  0  0  0  0
   25.1930    5.8400   -7.0820 C   0  0  0  0  0  0  0  0  0  0  0  0
   23.9810    5.8460   -6.3970 C   0  0  0  0  0  0  0  0  0  0  0  0
   23.7590    6.7940   -5.3980 C   0  0  0  0  0  0  0  0  0  0  0  0
   22.5430    6.7620   -4.7640 O   0  0  0  0  0  0  0  0  0  0  0  0
   25.3670    4.9000   -8.0540 O   0  0  0  0  0  0  0  0  0  0  0  0
   26.9780    8.5920   -5.5340 O   0  0  0  0  0  0  0  0  0  0  0  0
   22.9140    9.5420   -2.3390 O   0  0  0  0  0  0  0  0  0  0  0  0
   19.2940    6.8000   -0.0490 O   0  0  0  0  0  0  0  0  0  0  0  0
   17.1180    7.3450   -1.5660 O   0  0  0  0  0  0  0  0  0  0  0  0
   19.9240    8.1110   -5.0690 H   0  0  0  0  0  0  0  0  0  0  0  0
   17.6560    7.9840   -4.1220 H   0  0  0  0  0  0  0  0  0  0  0  0
   21.5970    6.9920   -1.2390 H   0  0  0  0  0  0  0  0  0  0  0  0
   27.1370    6.7710   -7.3160 H   0  0  0  0  0  0  0  0  0  0  0  0
   23.2150    5.1160   -6.6440 H   0  0  0  0  0  0  0  0  0  0  0  0
   25.8580    4.1490   -7.6790 H   0  0  0  0  0  0  0  0  0  0  0  0
   26.6510    9.2560   -4.8840 H   0  0  0  0  0  0  0  0  0  0  0  0
   22.8940    9.0720   -1.4890 H   0  0  0  0  0  0  0  0  0  0  0  0
   18.5670    7.3730    0.2670 H   0  0  0  0  0  0  0  0  0  0  0  0
   17.2380    7.1450   -0.6220 H   0  0  0  0  0  0  0  0  0  0  0  0
  1  2  2  0  0  0  0
  1  6  1  0  0  0  0
  2  3  1  0  0  0  0
  3 22  1  0  0  0  0
  3  4  2  0  0  0  0
  4 21  1  0  0  0  0
  5  4  1  0  0  0  0
  5 25  1  0  0  0  0
  6  5  2  0  0  0  0
  7  8  2  0  0  0  0
  7  6  1  0  0  0  0
  8 20  1  0  0  0  0
  9 10  2  0  0  0  0
  9  8  1  0  0  0  0
 11  9  1  0  0  0  0
 12 19  1  0  0  0  0
 12 11  2  0  0  0  0
 13 12  1  0  0  0  0
 14 13  2  0  0  0  0
 14 15  1  0  0  0  0
 15 16  2  0  0  0  0
 16 11  1  0  0  0  0
 16 17  1  0  0  0  0
 17  7  1  0  0  0  0
 18 28  1  0  0  0  0
 18 14  1  0  0  0  0
 19 29  1  0  0  0  0
 20 30  1  0  0  0  0
 21 31  1  0  0  0  0
 22 32  1  0  0  0  0
 23  1  1  0  0  0  0
 24  2  1  0  0  0  0
 26 13  1  0  0  0  0
 27 15  1  0  0  0  0
M  END
>  <Pose>
2

>  <Score>
-4.66

$$$$
