
 OpenBabel10152114563D

 32 34  0  0  0  0  0  0  0  0999 V2000
    7.1460   17.9600   15.5520 C   0  0  0  0  0  0  0  0  0  0  0  0
    7.4100   17.2620   14.3700 C   0  0  0  0  0  0  0  0  0  0  0  0
    6.4740   17.2920   13.3450 C   0  0  0  0  0  0  0  0  0  0  0  0
    5.2840   18.0010   13.5000 C   0  0  0  0  0  0  0  0  0  0  0  0
    5.0130   18.6980   14.6700 C   0  0  0  0  0  0  0  0  0  0  0  0
    5.9540   18.6930   15.7060 C   0  0  0  0  0  0  0  0  0  0  0  0
    5.7020   19.4560   16.9400 C   0  0  0  0  0  0  0  0  0  0  0  0
    6.1300   20.7250   17.1020 C   0  0  0  0  0  0  0  0  0  0  0  0
    5.8660   21.3860   18.4080 C   0  0  0  0  0  0  0  0  0  0  0  0
    6.2290   22.5320   18.6650 O   0  0  0  0  0  0  0  0  0  0  0  0
    5.1380   20.6090   19.4180 C   0  0  0  0  0  0  0  0  0  0  0  0
    4.8490   21.1380   20.6820 C   0  0  0  0  0  0  0  0  0  0  0  0
    4.1550   20.3800   21.6210 C   0  0  0  0  0  0  0  0  0  0  0  0
    3.7500   19.0920   21.2860 C   0  0  0  0  0  0  0  0  0  0  0  0
    4.0330   18.5540   20.0330 C   0  0  0  0  0  0  0  0  0  0  0  0
    4.7330   19.3160   19.0980 C   0  0  0  0  0  0  0  0  0  0  0  0
    4.9940   18.7320   17.8850 O   0  0  0  0  0  0  0  0  0  0  0  0
    3.0670   18.3120   22.1720 O   0  0  0  0  0  0  0  0  0  0  0  0
    5.2220   22.3990   21.0660 O   0  0  0  0  0  0  0  0  0  0  0  0
    6.7970   21.4610   16.1390 O   0  0  0  0  0  0  0  0  0  0  0  0
    4.3690   18.0230   12.4870 O   0  0  0  0  0  0  0  0  0  0  0  0
    6.6760   16.6420   12.1600 O   0  0  0  0  0  0  0  0  0  0  0  0
    7.8780   17.9290   16.3580 H   0  0  0  0  0  0  0  0  0  0  0  0
    8.3390   16.7080   14.2730 H   0  0  0  0  0  0  0  0  0  0  0  0
    4.0770   19.2430   14.7630 H   0  0  0  0  0  0  0  0  0  0  0  0
    3.9420   20.8080   22.5960 H   0  0  0  0  0  0  0  0  0  0  0  0
    3.7090   17.5450   19.7910 H   0  0  0  0  0  0  0  0  0  0  0  0
    3.7070   17.8030   22.6990 H   0  0  0  0  0  0  0  0  0  0  0  0
    6.1840   22.5030   20.8780 H   0  0  0  0  0  0  0  0  0  0  0  0
    6.1490   21.9400   15.5960 H   0  0  0  0  0  0  0  0  0  0  0  0
    3.9080   17.1620   12.5500 H   0  0  0  0  0  0  0  0  0  0  0  0
    7.3020   17.1630   11.6270 H   0  0  0  0  0  0  0  0  0  0  0  0
  1  6  1  0  0  0  0
  1 23  1  0  0  0  0
  2  1  2  0  0  0  0
  3  4  2  0  0  0  0
  3  2  1  0  0  0  0
  4  5  1  0  0  0  0
  5 25  1  0  0  0  0
  5  6  2  0  0  0  0
  6  7  1  0  0  0  0
  7  8  2  0  0  0  0
  7 17  1  0  0  0  0
  8  9  1  0  0  0  0
  9 10  2  0  0  0  0
  9 11  1  0  0  0  0
 11 12  1  0  0  0  0
 12 19  1  0  0  0  0
 12 13  2  0  0  0  0
 13 26  1  0  0  0  0
 14 13  1  0  0  0  0
 14 18  1  0  0  0  0
 15 14  2  0  0  0  0
 16 11  2  0  0  0  0
 16 15  1  0  0  0  0
 17 16  1  0  0  0  0
 18 28  1  0  0  0  0
 20  8  1  0  0  0  0
 21 31  1  0  0  0  0
 21  4  1  0  0  0  0
 22  3  1  0  0  0  0
 24  2  1  0  0  0  0
 27 15  1  0  0  0  0
 29 19  1  0  0  0  0
 30 20  1  0  0  0  0
 32 22  1  0  0  0  0
M  END
>  <Pose>
1

>  <Score>
-4.91

$$$$

 OpenBabel10152114563D

 32 34  0  0  0  0  0  0  0  0999 V2000
    7.2760   18.1030   15.6670 C   0  0  0  0  0  0  0  0  0  0  0  0
    7.6320   17.2360   14.6290 C   0  0  0  0  0  0  0  0  0  0  0  0
    6.8070   17.1400   13.5170 C   0  0  0  0  0  0  0  0  0  0  0  0
    5.6360   17.8910   13.4430 C   0  0  0  0  0  0  0  0  0  0  0  0
    5.2730   18.7550   14.4680 C   0  0  0  0  0  0  0  0  0  0  0  0
    6.1030   18.8780   15.5880 C   0  0  0  0  0  0  0  0  0  0  0  0
    5.7550   19.8170   16.6680 C   0  0  0  0  0  0  0  0  0  0  0  0
    6.5280   20.8780   16.9760 C   0  0  0  0  0  0  0  0  0  0  0  0
    6.1100   21.7330   18.1190 C   0  0  0  0  0  0  0  0  0  0  0  0
    6.7520   22.7120   18.4930 O   0  0  0  0  0  0  0  0  0  0  0  0
    4.8720   21.3650   18.8150 C   0  0  0  0  0  0  0  0  0  0  0  0
    4.4000   22.1010   19.9090 C   0  0  0  0  0  0  0  0  0  0  0  0
    3.2200   21.7320   20.5500 C   0  0  0  0  0  0  0  0  0  0  0  0
    2.5160   20.6240   20.0870 C   0  0  0  0  0  0  0  0  0  0  0  0
    2.9760   19.8830   19.0010 C   0  0  0  0  0  0  0  0  0  0  0  0
    4.1610   20.2560   18.3660 C   0  0  0  0  0  0  0  0  0  0  0  0
    4.5740   19.4840   17.3100 O   0  0  0  0  0  0  0  0  0  0  0  0
    1.3560   20.2240   20.6810 O   0  0  0  0  0  0  0  0  0  0  0  0
    5.0500   23.1990   20.4060 O   0  0  0  0  0  0  0  0  0  0  0  0
    7.6840   21.2340   16.3040 O   0  0  0  0  0  0  0  0  0  0  0  0
    4.8300   17.7870   12.3450 O   0  0  0  0  0  0  0  0  0  0  0  0
    7.1040   16.3210   12.4640 O   0  0  0  0  0  0  0  0  0  0  0  0
    7.9200   18.1730   16.5420 H   0  0  0  0  0  0  0  0  0  0  0  0
    8.5440   16.6530   14.7110 H   0  0  0  0  0  0  0  0  0  0  0  0
    4.3540   19.3290   14.3820 H   0  0  0  0  0  0  0  0  0  0  0  0
    2.8710   22.3140   21.3970 H   0  0  0  0  0  0  0  0  0  0  0  0
    2.4130   19.0210   18.6550 H   0  0  0  0  0  0  0  0  0  0  0  0
    1.1090   20.8770   21.3580 H   0  0  0  0  0  0  0  0  0  0  0  0
    6.0070   22.9760   20.4890 H   0  0  0  0  0  0  0  0  0  0  0  0
    8.3660   21.4810   16.9500 H   0  0  0  0  0  0  0  0  0  0  0  0
    4.3000   16.9790   12.5010 H   0  0  0  0  0  0  0  0  0  0  0  0
    7.4880   16.8630   11.7520 H   0  0  0  0  0  0  0  0  0  0  0  0
  1 23  1  0  0  0  0
  2 24  1  0  0  0  0
  2  1  2  0  0  0  0
  3  2  1  0  0  0  0
  4  3  2  0  0  0  0
  4  5  1  0  0  0  0
  5  6  2  0  0  0  0
  6  1  1  0  0  0  0
  6  7  1  0  0  0  0
  7  8  2  0  0  0  0
  7 17  1  0  0  0  0
  8  9  1  0  0  0  0
  9 10  2  0  0  0  0
  9 11  1  0  0  0  0
 11 12  1  0  0  0  0
 12 19  1  0  0  0  0
 12 13  2  0  0  0  0
 13 26  1  0  0  0  0
 14 13  1  0  0  0  0
 14 18  1  0  0  0  0
 15 14  2  0  0  0  0
 16 11  2  0  0  0  0
 16 15  1  0  0  0  0
 17 16  1  0  0  0  0
 18 28  1  0  0  0  0
 19 29  1  0  0  0  0
 20 30  1  0  0  0  0
 20  8  1  0  0  0  0
 21 31  1  0  0  0  0
 21  4  1  0  0  0  0
 22  3  1  0  0  0  0
 25  5  1  0  0  0  0
 27 15  1  0  0  0  0
 32 22  1  0  0  0  0
M  END
>  <Pose>
1

>  <Score>
-4.73

$$$$

 OpenBabel10152114563D

 32 34  0  0  0  0  0  0  0  0999 V2000
    4.5580   19.0860   15.0810 C   0  0  0  0  0  0  0  0  0  0  0  0
    4.6560   18.4870   13.8210 C   0  0  0  0  0  0  0  0  0  0  0  0
    5.7730   17.7180   13.5250 C   0  0  0  0  0  0  0  0  0  0  0  0
    6.7860   17.5560   14.4680 C   0  0  0  0  0  0  0  0  0  0  0  0
    6.6980   18.1460   15.7220 C   0  0  0  0  0  0  0  0  0  0  0  0
    5.5700   18.9100   16.0440 C   0  0  0  0  0  0  0  0  0  0  0  0
    5.4400   19.5130   17.3810 C   0  0  0  0  0  0  0  0  0  0  0  0
    5.3160   18.7670   18.4980 C   0  0  0  0  0  0  0  0  0  0  0  0
    5.1390   19.4790   19.7930 C   0  0  0  0  0  0  0  0  0  0  0  0
    4.9990   18.8950   20.8650 O   0  0  0  0  0  0  0  0  0  0  0  0
    5.1340   20.9460   19.7560 C   0  0  0  0  0  0  0  0  0  0  0  0
    4.9650   21.7070   20.9190 C   0  0  0  0  0  0  0  0  0  0  0  0
    4.9670   23.0980   20.8570 C   0  0  0  0  0  0  0  0  0  0  0  0
    5.1420   23.7210   19.6250 C   0  0  0  0  0  0  0  0  0  0  0  0
    5.3100   22.9750   18.4610 C   0  0  0  0  0  0  0  0  0  0  0  0
    5.3020   21.5810   18.5290 C   0  0  0  0  0  0  0  0  0  0  0  0
    5.4600   20.8970   17.3510 O   0  0  0  0  0  0  0  0  0  0  0  0
    5.1520   25.0800   19.5140 O   0  0  0  0  0  0  0  0  0  0  0  0
    4.7890   21.1480   22.1570 O   0  0  0  0  0  0  0  0  0  0  0  0
    5.3420   17.3840   18.5300 O   0  0  0  0  0  0  0  0  0  0  0  0
    7.8820   16.7990   14.1660 O   0  0  0  0  0  0  0  0  0  0  0  0
    5.9240   17.0960   12.3180 O   0  0  0  0  0  0  0  0  0  0  0  0
    3.6840   19.6950   15.3100 H   0  0  0  0  0  0  0  0  0  0  0  0
    3.8600   18.6340   13.0970 H   0  0  0  0  0  0  0  0  0  0  0  0
    7.5020   18.0010   16.4390 H   0  0  0  0  0  0  0  0  0  0  0  0
    4.8330   23.6700   21.7700 H   0  0  0  0  0  0  0  0  0  0  0  0
    5.4440   23.4790   17.5080 H   0  0  0  0  0  0  0  0  0  0  0  0
    5.4670   25.3190   18.6260 H   0  0  0  0  0  0  0  0  0  0  0  0
    5.6720   20.8660   22.4930 H   0  0  0  0  0  0  0  0  0  0  0  0
    5.6150   17.0490   17.6600 H   0  0  0  0  0  0  0  0  0  0  0  0
    7.6690   15.9070   14.5040 H   0  0  0  0  0  0  0  0  0  0  0  0
    5.3530   16.3090   12.3040 H   0  0  0  0  0  0  0  0  0  0  0  0
  1 23  1  0  0  0  0
  1  6  1  0  0  0  0
  2  1  2  0  0  0  0
  3  2  1  0  0  0  0
  3  4  2  0  0  0  0
  4  5  1  0  0  0  0
  5  6  2  0  0  0  0
  5 25  1  0  0  0  0
  6  7  1  0  0  0  0
  7  8  2  0  0  0  0
  8 20  1  0  0  0  0
  8  9  1  0  0  0  0
  9 10  2  0  0  0  0
 11  9  1  0  0  0  0
 11 12  1  0  0  0  0
 12 19  1  0  0  0  0
 13 12  2  0  0  0  0
 13 26  1  0  0  0  0
 14 13  1  0  0  0  0
 15 16  1  0  0  0  0
 15 14  2  0  0  0  0
 16 11  2  0  0  0  0
 17  7  1  0  0  0  0
 17 16  1  0  0  0  0
 18 14  1  0  0  0  0
 19 29  1  0  0  0  0
 21  4  1  0  0  0  0
 21 31  1  0  0  0  0
 22  3  1  0  0  0  0
 24  2  1  0  0  0  0
 27 15  1  0  0  0  0
 28 18  1  0  0  0  0
 30 20  1  0  0  0  0
 32 22  1  0  0  0  0
M  END
>  <Pose>
2

>  <Score>
-4.58

$$$$

 OpenBabel10152114563D

 32 34  0  0  0  0  0  0  0  0999 V2000
    5.4590   23.0100   20.0320 C   0  0  0  0  0  0  0  0  0  0  0  0
    5.1590   24.2180   20.6690 C   0  0  0  0  0  0  0  0  0  0  0  0
    4.5930   25.2480   19.9300 C   0  0  0  0  0  0  0  0  0  0  0  0
    4.3390   25.0810   18.5700 C   0  0  0  0  0  0  0  0  0  0  0  0
    4.6320   23.8850   17.9280 C   0  0  0  0  0  0  0  0  0  0  0  0
    5.1860   22.8300   18.6630 C   0  0  0  0  0  0  0  0  0  0  0  0
    5.4700   21.5410   18.0090 C   0  0  0  0  0  0  0  0  0  0  0  0
    6.5800   21.3370   17.2710 C   0  0  0  0  0  0  0  0  0  0  0  0
    6.7430   20.0140   16.6110 C   0  0  0  0  0  0  0  0  0  0  0  0
    7.7070   19.7310   15.9040 O   0  0  0  0  0  0  0  0  0  0  0  0
    5.6860   19.0200   16.8320 C   0  0  0  0  0  0  0  0  0  0  0  0
    5.7420   17.7480   16.2480 C   0  0  0  0  0  0  0  0  0  0  0  0
    4.7280   16.8230   16.4760 C   0  0  0  0  0  0  0  0  0  0  0  0
    3.6590   17.1780   17.2940 C   0  0  0  0  0  0  0  0  0  0  0  0
    3.5920   18.4390   17.8800 C   0  0  0  0  0  0  0  0  0  0  0  0
    4.6090   19.3630   17.6440 C   0  0  0  0  0  0  0  0  0  0  0  0
    4.4850   20.5940   18.2360 O   0  0  0  0  0  0  0  0  0  0  0  0
    2.6420   16.3050   17.5480 O   0  0  0  0  0  0  0  0  0  0  0  0
    6.7690   17.3460   15.4350 O   0  0  0  0  0  0  0  0  0  0  0  0
    7.5850   22.2710   17.0820 O   0  0  0  0  0  0  0  0  0  0  0  0
    3.7840   26.1010   17.8520 O   0  0  0  0  0  0  0  0  0  0  0  0
    4.2660   26.4480   20.4950 O   0  0  0  0  0  0  0  0  0  0  0  0
    5.9100   22.2050   20.6110 H   0  0  0  0  0  0  0  0  0  0  0  0
    5.3740   24.3310   21.7270 H   0  0  0  0  0  0  0  0  0  0  0  0
    4.4210   23.7820   16.8670 H   0  0  0  0  0  0  0  0  0  0  0  0
    4.7890   15.8430   16.0130 H   0  0  0  0  0  0  0  0  0  0  0  0
    2.7480   18.6970   18.5150 H   0  0  0  0  0  0  0  0  0  0  0  0
    2.5590   15.6940   16.7960 H   0  0  0  0  0  0  0  0  0  0  0  0
    6.7670   16.3610   15.4070 H   0  0  0  0  0  0  0  0  0  0  0  0
    8.0900   22.3680   17.9070 H   0  0  0  0  0  0  0  0  0  0  0  0
    4.3700   26.2060   17.0750 H   0  0  0  0  0  0  0  0  0  0  0  0
    3.3600   26.3860   20.8440 H   0  0  0  0  0  0  0  0  0  0  0  0
  1 23  1  0  0  0  0
  1  2  1  0  0  0  0
  2 24  1  0  0  0  0
  3 22  1  0  0  0  0
  3  2  2  0  0  0  0
  4  3  1  0  0  0  0
  5  4  2  0  0  0  0
  5  6  1  0  0  0  0
  6  1  2  0  0  0  0
  7 17  1  0  0  0  0
  7  6  1  0  0  0  0
  8  7  2  0  0  0  0
  9 11  1  0  0  0  0
  9  8  1  0  0  0  0
 10  9  2  0  0  0  0
 11 16  1  0  0  0  0
 12 13  1  0  0  0  0
 12 11  2  0  0  0  0
 13 14  2  0  0  0  0
 14 18  1  0  0  0  0
 14 15  1  0  0  0  0
 15 27  1  0  0  0  0
 16 15  2  0  0  0  0
 16 17  1  0  0  0  0
 19 12  1  0  0  0  0
 20  8  1  0  0  0  0
 20 30  1  0  0  0  0
 21  4  1  0  0  0  0
 22 32  1  0  0  0  0
 25  5  1  0  0  0  0
 26 13  1  0  0  0  0
 28 18  1  0  0  0  0
 29 19  1  0  0  0  0
 31 21  1  0  0  0  0
M  END
>  <Pose>
1

>  <Score>
-4.58

$$$$
