
 OpenBabel10152114563D

 32 34  0  0  0  0  0  0  0  0999 V2000
    0.4120   24.7820   10.1400 C   0  0  0  0  0  0  0  0  0  0  0  0
    0.1210   25.5110   11.2980 C   0  0  0  0  0  0  0  0  0  0  0  0
    0.0950   24.8520   12.5200 C   0  0  0  0  0  0  0  0  0  0  0  0
    0.3450   23.4830   12.5870 C   0  0  0  0  0  0  0  0  0  0  0  0
    0.6350   22.7510   11.4430 C   0  0  0  0  0  0  0  0  0  0  0  0
    0.6840   23.4030   10.2050 C   0  0  0  0  0  0  0  0  0  0  0  0
    1.0260   22.6510    8.9850 C   0  0  0  0  0  0  0  0  0  0  0  0
    2.1220   22.9320    8.2510 C   0  0  0  0  0  0  0  0  0  0  0  0
    2.3460   22.1450    7.0090 C   0  0  0  0  0  0  0  0  0  0  0  0
    3.3020   22.3330    6.2600 O   0  0  0  0  0  0  0  0  0  0  0  0
    1.3620   21.1050    6.6870 C   0  0  0  0  0  0  0  0  0  0  0  0
    1.4800   20.3160    5.5360 C   0  0  0  0  0  0  0  0  0  0  0  0
    0.5340   19.3330    5.2560 C   0  0  0  0  0  0  0  0  0  0  0  0
   -0.5270   19.1440    6.1370 C   0  0  0  0  0  0  0  0  0  0  0  0
   -0.6550   19.9220    7.2850 C   0  0  0  0  0  0  0  0  0  0  0  0
    0.2940   20.9080    7.5570 C   0  0  0  0  0  0  0  0  0  0  0  0
    0.1120   21.6530    8.6940 O   0  0  0  0  0  0  0  0  0  0  0  0
   -1.4770   18.1940    5.9060 O   0  0  0  0  0  0  0  0  0  0  0  0
    2.5010   20.4590    4.6350 O   0  0  0  0  0  0  0  0  0  0  0  0
    3.0580   23.9010    8.5690 O   0  0  0  0  0  0  0  0  0  0  0  0
    0.3140   22.8450   13.7940 O   0  0  0  0  0  0  0  0  0  0  0  0
   -0.1700   25.5080   13.6890 O   0  0  0  0  0  0  0  0  0  0  0  0
    0.4250   25.2990    9.1800 H   0  0  0  0  0  0  0  0  0  0  0  0
   -0.0800   26.5750   11.2220 H   0  0  0  0  0  0  0  0  0  0  0  0
    0.8270   21.6850   11.5250 H   0  0  0  0  0  0  0  0  0  0  0  0
    0.6410   18.7340    4.3570 H   0  0  0  0  0  0  0  0  0  0  0  0
   -1.4910   19.7600    7.9590 H   0  0  0  0  0  0  0  0  0  0  0  0
   -2.3530   18.6170    5.9160 H   0  0  0  0  0  0  0  0  0  0  0  0
    2.8880   19.5680    4.4690 H   0  0  0  0  0  0  0  0  0  0  0  0
    3.8930   23.4690    8.8170 H   0  0  0  0  0  0  0  0  0  0  0  0
    1.0650   22.2190   13.7630 H   0  0  0  0  0  0  0  0  0  0  0  0
    0.4910   26.2120   13.8030 H   0  0  0  0  0  0  0  0  0  0  0  0
  1  6  2  0  0  0  0
  1  2  1  0  0  0  0
  2  3  2  0  0  0  0
  3  4  1  0  0  0  0
  3 22  1  0  0  0  0
  4 21  1  0  0  0  0
  5 25  1  0  0  0  0
  5  4  2  0  0  0  0
  6  5  1  0  0  0  0
  7  6  1  0  0  0  0
  8 20  1  0  0  0  0
  8  7  2  0  0  0  0
  9  8  1  0  0  0  0
 10  9  2  0  0  0  0
 11  9  1  0  0  0  0
 11 16  1  0  0  0  0
 12 11  2  0  0  0  0
 13 12  1  0  0  0  0
 13 14  2  0  0  0  0
 14 15  1  0  0  0  0
 15 16  2  0  0  0  0
 15 27  1  0  0  0  0
 16 17  1  0  0  0  0
 17  7  1  0  0  0  0
 18 28  1  0  0  0  0
 18 14  1  0  0  0  0
 19 12  1  0  0  0  0
 20 30  1  0  0  0  0
 22 32  1  0  0  0  0
 23  1  1  0  0  0  0
 24  2  1  0  0  0  0
 26 13  1  0  0  0  0
 29 19  1  0  0  0  0
 31 21  1  0  0  0  0
M  END
>  <Pose>
5

>  <Score>
-5.17

$$$$
