
 OpenBabel10152114563D

 32 34  0  0  0  0  0  0  0  0999 V2000
   25.1700   26.5040   23.3480 C   0  0  0  0  0  0  0  0  0  0  0  0
   24.7860   27.5920   24.1380 C   0  0  0  0  0  0  0  0  0  0  0  0
   23.6200   28.2750   23.8230 C   0  0  0  0  0  0  0  0  0  0  0  0
   22.8500   27.8870   22.7290 C   0  0  0  0  0  0  0  0  0  0  0  0
   23.2220   26.8080   21.9380 C   0  0  0  0  0  0  0  0  0  0  0  0
   24.3860   26.0960   22.2520 C   0  0  0  0  0  0  0  0  0  0  0  0
   24.7780   24.9260   21.4490 C   0  0  0  0  0  0  0  0  0  0  0  0
   24.3120   23.6870   21.7070 C   0  0  0  0  0  0  0  0  0  0  0  0
   24.8130   22.5670   20.8650 C   0  0  0  0  0  0  0  0  0  0  0  0
   24.4660   21.3990   21.0280 O   0  0  0  0  0  0  0  0  0  0  0  0
   25.7660   22.9020   19.8010 C   0  0  0  0  0  0  0  0  0  0  0  0
   26.3020   21.9180   18.9610 C   0  0  0  0  0  0  0  0  0  0  0  0
   27.2020   22.2630   17.9570 C   0  0  0  0  0  0  0  0  0  0  0  0
   27.5590   23.5990   17.7970 C   0  0  0  0  0  0  0  0  0  0  0  0
   27.0330   24.5860   18.6260 C   0  0  0  0  0  0  0  0  0  0  0  0
   26.1350   24.2330   19.6340 C   0  0  0  0  0  0  0  0  0  0  0  0
   25.6580   25.2440   20.4280 O   0  0  0  0  0  0  0  0  0  0  0  0
   28.4360   23.9860   16.8280 O   0  0  0  0  0  0  0  0  0  0  0  0
   25.9870   20.5900   19.0720 O   0  0  0  0  0  0  0  0  0  0  0  0
   23.3970   23.3780   22.6990 O   0  0  0  0  0  0  0  0  0  0  0  0
   21.7060   28.5680   22.4270 O   0  0  0  0  0  0  0  0  0  0  0  0
   23.1830   29.3390   24.5620 O   0  0  0  0  0  0  0  0  0  0  0  0
   26.0900   25.9720   23.5910 H   0  0  0  0  0  0  0  0  0  0  0  0
   25.4050   27.8840   24.9810 H   0  0  0  0  0  0  0  0  0  0  0  0
   22.6020   26.5260   21.0920 H   0  0  0  0  0  0  0  0  0  0  0  0
   27.6080   21.4860   17.3170 H   0  0  0  0  0  0  0  0  0  0  0  0
   27.3250   25.6240   18.4860 H   0  0  0  0  0  0  0  0  0  0  0  0
   28.1540   24.8480   16.4760 H   0  0  0  0  0  0  0  0  0  0  0  0
   25.3210   20.3750   18.3780 H   0  0  0  0  0  0  0  0  0  0  0  0
   22.6350   22.9250   22.3010 H   0  0  0  0  0  0  0  0  0  0  0  0
   22.0130   29.4270   22.0750 H   0  0  0  0  0  0  0  0  0  0  0  0
   22.8020   29.9980   23.9560 H   0  0  0  0  0  0  0  0  0  0  0  0
  1 23  1  0  0  0  0
  1  2  1  0  0  0  0
  2 24  1  0  0  0  0
  3  2  2  0  0  0  0
  3 22  1  0  0  0  0
  4  3  1  0  0  0  0
  5  6  1  0  0  0  0
  5  4  2  0  0  0  0
  6  1  2  0  0  0  0
  7  8  2  0  0  0  0
  7  6  1  0  0  0  0
  8 20  1  0  0  0  0
  9 10  2  0  0  0  0
  9  8  1  0  0  0  0
 11  9  1  0  0  0  0
 12 19  1  0  0  0  0
 12 11  2  0  0  0  0
 13 12  1  0  0  0  0
 14 13  2  0  0  0  0
 14 15  1  0  0  0  0
 15 16  2  0  0  0  0
 16 11  1  0  0  0  0
 16 17  1  0  0  0  0
 17  7  1  0  0  0  0
 18 14  1  0  0  0  0
 21  4  1  0  0  0  0
 25  5  1  0  0  0  0
 26 13  1  0  0  0  0
 27 15  1  0  0  0  0
 28 18  1  0  0  0  0
 29 19  1  0  0  0  0
 30 20  1  0  0  0  0
 31 21  1  0  0  0  0
 32 22  1  0  0  0  0
M  END
>  <Pose>
3

>  <Score>
-4.66

$$$$

 OpenBabel10152114563D

 32 34  0  0  0  0  0  0  0  0999 V2000
   27.4750   23.7210   21.5110 C   0  0  0  0  0  0  0  0  0  0  0  0
   28.3820   22.8100   20.9610 C   0  0  0  0  0  0  0  0  0  0  0  0
   27.8980   21.7450   20.2130 C   0  0  0  0  0  0  0  0  0  0  0  0
   26.5280   21.5830   20.0240 C   0  0  0  0  0  0  0  0  0  0  0  0
   25.6190   22.4820   20.5660 C   0  0  0  0  0  0  0  0  0  0  0  0
   26.0900   23.5720   21.3070 C   0  0  0  0  0  0  0  0  0  0  0  0
   25.1440   24.5580   21.8570 C   0  0  0  0  0  0  0  0  0  0  0  0
   24.8090   25.6830   21.1930 C   0  0  0  0  0  0  0  0  0  0  0  0
   23.8840   26.6360   21.8640 C   0  0  0  0  0  0  0  0  0  0  0  0
   23.5300   27.6970   21.3550 O   0  0  0  0  0  0  0  0  0  0  0  0
   23.3900   26.2660   23.1960 C   0  0  0  0  0  0  0  0  0  0  0  0
   22.5230   27.1000   23.9130 C   0  0  0  0  0  0  0  0  0  0  0  0
   22.0660   26.7240   25.1730 C   0  0  0  0  0  0  0  0  0  0  0  0
   22.4810   25.5080   25.7080 C   0  0  0  0  0  0  0  0  0  0  0  0
   23.3430   24.6710   25.0050 C   0  0  0  0  0  0  0  0  0  0  0  0
   23.8010   25.0550   23.7450 C   0  0  0  0  0  0  0  0  0  0  0  0
   24.6580   24.1980   23.1030 O   0  0  0  0  0  0  0  0  0  0  0  0
   22.0600   25.0960   26.9380 O   0  0  0  0  0  0  0  0  0  0  0  0
   22.0830   28.3060   23.4350 O   0  0  0  0  0  0  0  0  0  0  0  0
   25.2620   26.0170   19.9290 O   0  0  0  0  0  0  0  0  0  0  0  0
   26.0630   20.5300   19.2890 O   0  0  0  0  0  0  0  0  0  0  0  0
   28.7320   20.8270   19.6390 O   0  0  0  0  0  0  0  0  0  0  0  0
   27.8550   24.5530   22.1030 H   0  0  0  0  0  0  0  0  0  0  0  0
   29.4460   22.9490   21.1280 H   0  0  0  0  0  0  0  0  0  0  0  0
   24.5550   22.3310   20.4010 H   0  0  0  0  0  0  0  0  0  0  0  0
   21.3960   27.3850   25.7140 H   0  0  0  0  0  0  0  0  0  0  0  0
   23.6560   23.7260   25.4410 H   0  0  0  0  0  0  0  0  0  0  0  0
   21.6750   24.2070   26.8570 H   0  0  0  0  0  0  0  0  0  0  0  0
   22.7660   28.9850   23.6440 H   0  0  0  0  0  0  0  0  0  0  0  0
   25.2580   26.9850   19.8340 H   0  0  0  0  0  0  0  0  0  0  0  0
   25.4930   20.0280   19.9060 H   0  0  0  0  0  0  0  0  0  0  0  0
   29.0160   20.1980   20.3250 H   0  0  0  0  0  0  0  0  0  0  0  0
  1 23  1  0  0  0  0
  2 24  1  0  0  0  0
  2  1  2  0  0  0  0
  3  2  1  0  0  0  0
  4  3  2  0  0  0  0
  4  5  1  0  0  0  0
  5  6  2  0  0  0  0
  6  1  1  0  0  0  0
  6  7  1  0  0  0  0
  7 17  1  0  0  0  0
  8  7  2  0  0  0  0
  8  9  1  0  0  0  0
  9 11  1  0  0  0  0
 10  9  2  0  0  0  0
 11 16  2  0  0  0  0
 11 12  1  0  0  0  0
 12 13  2  0  0  0  0
 13 14  1  0  0  0  0
 13 26  1  0  0  0  0
 14 18  1  0  0  0  0
 15 27  1  0  0  0  0
 15 14  2  0  0  0  0
 16 15  1  0  0  0  0
 17 16  1  0  0  0  0
 19 29  1  0  0  0  0
 19 12  1  0  0  0  0
 20  8  1  0  0  0  0
 21 31  1  0  0  0  0
 21  4  1  0  0  0  0
 22  3  1  0  0  0  0
 22 32  1  0  0  0  0
 25  5  1  0  0  0  0
 28 18  1  0  0  0  0
 30 20  1  0  0  0  0
M  END
>  <Pose>
2

>  <Score>
-4.59

$$$$
