
 OpenBabel10152114563D

 32 34  0  0  0  0  0  0  0  0999 V2000
    5.0800   29.5450   27.0230 C   0  0  0  0  0  0  0  0  0  0  0  0
    4.8470   30.0230   28.3170 C   0  0  0  0  0  0  0  0  0  0  0  0
    4.3010   29.1660   29.2630 C   0  0  0  0  0  0  0  0  0  0  0  0
    3.9800   27.8540   28.9230 C   0  0  0  0  0  0  0  0  0  0  0  0
    4.2080   27.3700   27.6410 C   0  0  0  0  0  0  0  0  0  0  0  0
    4.7750   28.2150   26.6800 C   0  0  0  0  0  0  0  0  0  0  0  0
    5.0590   27.7100   25.3260 C   0  0  0  0  0  0  0  0  0  0  0  0
    4.4430   28.2010   24.2310 C   0  0  0  0  0  0  0  0  0  0  0  0
    4.7660   27.5830   22.9170 C   0  0  0  0  0  0  0  0  0  0  0  0
    4.2480   27.9430   21.8620 O   0  0  0  0  0  0  0  0  0  0  0  0
    5.7510   26.4950   22.9110 C   0  0  0  0  0  0  0  0  0  0  0  0
    6.1150   25.8430   21.7260 C   0  0  0  0  0  0  0  0  0  0  0  0
    7.0550   24.8160   21.7480 C   0  0  0  0  0  0  0  0  0  0  0  0
    7.6270   24.4480   22.9620 C   0  0  0  0  0  0  0  0  0  0  0  0
    7.2720   25.0880   24.1460 C   0  0  0  0  0  0  0  0  0  0  0  0
    6.3270   26.1130   24.1190 C   0  0  0  0  0  0  0  0  0  0  0  0
    6.0060   26.7000   25.3160 O   0  0  0  0  0  0  0  0  0  0  0  0
    8.5520   23.4480   23.0330 O   0  0  0  0  0  0  0  0  0  0  0  0
    5.5850   26.1640   20.5050 O   0  0  0  0  0  0  0  0  0  0  0  0
    3.5300   29.2410   24.2390 O   0  0  0  0  0  0  0  0  0  0  0  0
    3.4410   27.0210   29.8610 O   0  0  0  0  0  0  0  0  0  0  0  0
    4.0600   29.5660   30.5480 O   0  0  0  0  0  0  0  0  0  0  0  0
    5.5020   30.2200   26.2800 H   0  0  0  0  0  0  0  0  0  0  0  0
    5.0950   31.0510   28.5590 H   0  0  0  0  0  0  0  0  0  0  0  0
    3.9490   26.3420   27.4040 H   0  0  0  0  0  0  0  0  0  0  0  0
    7.3230   24.3220   20.8190 H   0  0  0  0  0  0  0  0  0  0  0  0
    7.7300   24.7850   25.0840 H   0  0  0  0  0  0  0  0  0  0  0  0
    8.1520   22.6820   23.4790 H   0  0  0  0  0  0  0  0  0  0  0  0
    5.5420   27.1460   20.4380 H   0  0  0  0  0  0  0  0  0  0  0  0
    3.3970   29.5560   23.3290 H   0  0  0  0  0  0  0  0  0  0  0  0
    2.9600   26.3430   29.3450 H   0  0  0  0  0  0  0  0  0  0  0  0
    3.4530   28.9270   30.9600 H   0  0  0  0  0  0  0  0  0  0  0  0
  1  2  1  0  0  0  0
  2 24  1  0  0  0  0
  2  3  2  0  0  0  0
  3 22  1  0  0  0  0
  4  3  1  0  0  0  0
  4 21  1  0  0  0  0
  5  4  2  0  0  0  0
  6  1  2  0  0  0  0
  6  5  1  0  0  0  0
  7  6  1  0  0  0  0
  8 20  1  0  0  0  0
  8  7  2  0  0  0  0
  9  8  1  0  0  0  0
 10  9  2  0  0  0  0
 11  9  1  0  0  0  0
 11 16  1  0  0  0  0
 12 13  1  0  0  0  0
 12 11  2  0  0  0  0
 13 14  2  0  0  0  0
 14 18  1  0  0  0  0
 14 15  1  0  0  0  0
 15 27  1  0  0  0  0
 16 15  2  0  0  0  0
 16 17  1  0  0  0  0
 17  7  1  0  0  0  0
 18 28  1  0  0  0  0
 19 12  1  0  0  0  0
 22 32  1  0  0  0  0
 23  1  1  0  0  0  0
 25  5  1  0  0  0  0
 26 13  1  0  0  0  0
 29 19  1  0  0  0  0
 30 20  1  0  0  0  0
 31 21  1  0  0  0  0
M  END
>  <Pose>
5

>  <Score>
-6.14

$$$$
