
 OpenBabel10152114563D

 32 34  0  0  0  0  0  0  0  0999 V2000
   12.8250   19.0710   27.1140 C   0  0  0  0  0  0  0  0  0  0  0  0
   13.0910   19.3240   25.7640 C   0  0  0  0  0  0  0  0  0  0  0  0
   13.1730   18.2550   24.8820 C   0  0  0  0  0  0  0  0  0  0  0  0
   13.0030   16.9500   25.3390 C   0  0  0  0  0  0  0  0  0  0  0  0
   12.7390   16.6890   26.6770 C   0  0  0  0  0  0  0  0  0  0  0  0
   12.6340   17.7550   27.5770 C   0  0  0  0  0  0  0  0  0  0  0  0
   12.3170   17.5020   28.9930 C   0  0  0  0  0  0  0  0  0  0  0  0
   11.3570   18.1840   29.6490 C   0  0  0  0  0  0  0  0  0  0  0  0
   11.1540   17.8840   31.0920 C   0  0  0  0  0  0  0  0  0  0  0  0
   10.3190   18.4610   31.7850 O   0  0  0  0  0  0  0  0  0  0  0  0
   12.0060   16.8490   31.6880 C   0  0  0  0  0  0  0  0  0  0  0  0
   11.8990   16.5010   33.0400 C   0  0  0  0  0  0  0  0  0  0  0  0
   12.7180   15.5120   33.5800 C   0  0  0  0  0  0  0  0  0  0  0  0
   13.6420   14.8750   32.7580 C   0  0  0  0  0  0  0  0  0  0  0  0
   13.7580   15.2130   31.4120 C   0  0  0  0  0  0  0  0  0  0  0  0
   12.9380   16.2070   30.8780 C   0  0  0  0  0  0  0  0  0  0  0  0
   13.1040   16.5080   29.5510 O   0  0  0  0  0  0  0  0  0  0  0  0
   14.4650   13.9010   33.2400 O   0  0  0  0  0  0  0  0  0  0  0  0
   11.0090   17.0940   33.8950 O   0  0  0  0  0  0  0  0  0  0  0  0
   10.5410   19.1450   29.0780 O   0  0  0  0  0  0  0  0  0  0  0  0
   13.0890   15.9060   24.4630 O   0  0  0  0  0  0  0  0  0  0  0  0
   13.4170   18.4350   23.5490 O   0  0  0  0  0  0  0  0  0  0  0  0
   12.7670   19.9100   27.8070 H   0  0  0  0  0  0  0  0  0  0  0  0
   13.2290   20.3470   25.4300 H   0  0  0  0  0  0  0  0  0  0  0  0
   12.6100   15.6610   27.0060 H   0  0  0  0  0  0  0  0  0  0  0  0
   12.6200   15.2580   34.6310 H   0  0  0  0  0  0  0  0  0  0  0  0
   14.4870   14.7040   30.7860 H   0  0  0  0  0  0  0  0  0  0  0  0
   14.1300   13.0350   32.9490 H   0  0  0  0  0  0  0  0  0  0  0  0
   10.2340   17.3970   33.3670 H   0  0  0  0  0  0  0  0  0  0  0  0
   10.0540   18.7510   28.3350 H   0  0  0  0  0  0  0  0  0  0  0  0
   12.2830   15.9760   23.9130 H   0  0  0  0  0  0  0  0  0  0  0  0
   14.3130   18.8020   23.4480 H   0  0  0  0  0  0  0  0  0  0  0  0
  1  6  1  0  0  0  0
  1 23  1  0  0  0  0
  2  1  2  0  0  0  0
  3  4  2  0  0  0  0
  3  2  1  0  0  0  0
  4  5  1  0  0  0  0
  5 25  1  0  0  0  0
  5  6  2  0  0  0  0
  6  7  1  0  0  0  0
  7 17  1  0  0  0  0
  7  8  2  0  0  0  0
  8  9  1  0  0  0  0
  9 11  1  0  0  0  0
  9 10  2  0  0  0  0
 11 12  1  0  0  0  0
 12 13  2  0  0  0  0
 12 19  1  0  0  0  0
 13 26  1  0  0  0  0
 14 18  1  0  0  0  0
 14 13  1  0  0  0  0
 15 14  2  0  0  0  0
 16 15  1  0  0  0  0
 16 11  2  0  0  0  0
 17 16  1  0  0  0  0
 20  8  1  0  0  0  0
 21  4  1  0  0  0  0
 22  3  1  0  0  0  0
 24  2  1  0  0  0  0
 27 15  1  0  0  0  0
 28 18  1  0  0  0  0
 29 19  1  0  0  0  0
 30 20  1  0  0  0  0
 31 21  1  0  0  0  0
 32 22  1  0  0  0  0
M  END
>  <Pose>
1

>  <Score>
-5.56

$$$$

 OpenBabel10152114563D

 32 34  0  0  0  0  0  0  0  0999 V2000
   13.3930   16.3430   27.0410 C   0  0  0  0  0  0  0  0  0  0  0  0
   13.4950   16.7150   25.6970 C   0  0  0  0  0  0  0  0  0  0  0  0
   13.2580   18.0370   25.3440 C   0  0  0  0  0  0  0  0  0  0  0  0
   12.9130   18.9740   26.3150 C   0  0  0  0  0  0  0  0  0  0  0  0
   12.8090   18.6140   27.6530 C   0  0  0  0  0  0  0  0  0  0  0  0
   13.0630   17.2900   28.0290 C   0  0  0  0  0  0  0  0  0  0  0  0
   12.9940   16.8960   29.4460 C   0  0  0  0  0  0  0  0  0  0  0  0
   11.8540   16.9780   30.1620 C   0  0  0  0  0  0  0  0  0  0  0  0
   11.9080   16.6040   31.6010 C   0  0  0  0  0  0  0  0  0  0  0  0
   10.9320   16.6600   32.3450 O   0  0  0  0  0  0  0  0  0  0  0  0
   13.2010   16.1530   32.1280 C   0  0  0  0  0  0  0  0  0  0  0  0
   13.3580   15.7880   33.4710 C   0  0  0  0  0  0  0  0  0  0  0  0
   14.5950   15.3600   33.9450 C   0  0  0  0  0  0  0  0  0  0  0  0
   15.6720   15.2980   33.0660 C   0  0  0  0  0  0  0  0  0  0  0  0
   15.5300   15.6600   31.7290 C   0  0  0  0  0  0  0  0  0  0  0  0
   14.2880   16.0920   31.2610 C   0  0  0  0  0  0  0  0  0  0  0  0
   14.2080   16.4470   29.9390 O   0  0  0  0  0  0  0  0  0  0  0  0
   16.9030   14.8850   33.4830 O   0  0  0  0  0  0  0  0  0  0  0  0
   12.3330   15.8290   34.3790 O   0  0  0  0  0  0  0  0  0  0  0  0
   10.6320   17.3850   29.6550 O   0  0  0  0  0  0  0  0  0  0  0  0
   12.6790   20.2700   25.9570 O   0  0  0  0  0  0  0  0  0  0  0  0
   13.3540   18.4680   24.0510 O   0  0  0  0  0  0  0  0  0  0  0  0
   13.5720   15.3040   27.3160 H   0  0  0  0  0  0  0  0  0  0  0  0
   13.7570   15.9680   24.9550 H   0  0  0  0  0  0  0  0  0  0  0  0
   12.5390   19.3660   28.3890 H   0  0  0  0  0  0  0  0  0  0  0  0
   14.6960   15.0820   34.9900 H   0  0  0  0  0  0  0  0  0  0  0  0
   16.3830   15.6060   31.0590 H   0  0  0  0  0  0  0  0  0  0  0  0
   17.0180   15.1340   34.4160 H   0  0  0  0  0  0  0  0  0  0  0  0
   11.8910   16.7060   34.3020 H   0  0  0  0  0  0  0  0  0  0  0  0
   10.3680   16.7860   28.9370 H   0  0  0  0  0  0  0  0  0  0  0  0
   11.7060   20.3370   25.8850 H   0  0  0  0  0  0  0  0  0  0  0  0
   14.1640   19.0010   23.9640 H   0  0  0  0  0  0  0  0  0  0  0  0
  1 23  1  0  0  0  0
  1  6  1  0  0  0  0
  2  1  2  0  0  0  0
  3  2  1  0  0  0  0
  3  4  2  0  0  0  0
  4  5  1  0  0  0  0
  5  6  2  0  0  0  0
  5 25  1  0  0  0  0
  6  7  1  0  0  0  0
  7 17  1  0  0  0  0
  7  8  2  0  0  0  0
  8  9  1  0  0  0  0
  9 11  1  0  0  0  0
  9 10  2  0  0  0  0
 11 12  1  0  0  0  0
 12 13  2  0  0  0  0
 12 19  1  0  0  0  0
 13 26  1  0  0  0  0
 14 18  1  0  0  0  0
 14 13  1  0  0  0  0
 15 14  2  0  0  0  0
 16 15  1  0  0  0  0
 16 11  2  0  0  0  0
 17 16  1  0  0  0  0
 18 28  1  0  0  0  0
 20  8  1  0  0  0  0
 21  4  1  0  0  0  0
 22  3  1  0  0  0  0
 24  2  1  0  0  0  0
 27 15  1  0  0  0  0
 29 19  1  0  0  0  0
 30 20  1  0  0  0  0
 31 21  1  0  0  0  0
 32 22  1  0  0  0  0
M  END
>  <Pose>
1

>  <Score>
-5.51

$$$$

 OpenBabel10152114563D

 32 34  0  0  0  0  0  0  0  0999 V2000
   13.3640   15.9730   26.8820 C   0  0  0  0  0  0  0  0  0  0  0  0
   13.2910   16.4060   25.5540 C   0  0  0  0  0  0  0  0  0  0  0  0
   13.1780   17.7660   25.2940 C   0  0  0  0  0  0  0  0  0  0  0  0
   13.1260   18.6810   26.3420 C   0  0  0  0  0  0  0  0  0  0  0  0
   13.1970   18.2610   27.6640 C   0  0  0  0  0  0  0  0  0  0  0  0
   13.3310   16.8960   27.9440 C   0  0  0  0  0  0  0  0  0  0  0  0
   13.4460   16.4340   29.3380 C   0  0  0  0  0  0  0  0  0  0  0  0
   14.3950   15.5590   29.7300 C   0  0  0  0  0  0  0  0  0  0  0  0
   14.3880   15.1190   31.1510 C   0  0  0  0  0  0  0  0  0  0  0  0
   15.1970   14.3130   31.6060 O   0  0  0  0  0  0  0  0  0  0  0  0
   13.3570   15.6880   32.0260 C   0  0  0  0  0  0  0  0  0  0  0  0
   13.2620   15.3300   33.3760 C   0  0  0  0  0  0  0  0  0  0  0  0
   12.2750   15.8880   34.1850 C   0  0  0  0  0  0  0  0  0  0  0  0
   11.3870   16.8070   33.6330 C   0  0  0  0  0  0  0  0  0  0  0  0
   11.4710   17.1710   32.2920 C   0  0  0  0  0  0  0  0  0  0  0  0
   12.4590   16.6050   31.4860 C   0  0  0  0  0  0  0  0  0  0  0  0
   12.4870   16.9890   30.1700 O   0  0  0  0  0  0  0  0  0  0  0  0
   10.4050   17.3810   34.3850 O   0  0  0  0  0  0  0  0  0  0  0  0
   14.1070   14.4320   33.9710 O   0  0  0  0  0  0  0  0  0  0  0  0
   15.3790   15.0410   28.9070 O   0  0  0  0  0  0  0  0  0  0  0  0
   13.0110   20.0150   26.0750 O   0  0  0  0  0  0  0  0  0  0  0  0
   13.1150   18.2550   24.0190 O   0  0  0  0  0  0  0  0  0  0  0  0
   13.4460   14.9060   27.0860 H   0  0  0  0  0  0  0  0  0  0  0  0
   13.3240   15.6760   24.7520 H   0  0  0  0  0  0  0  0  0  0  0  0
   13.1560   18.9980   28.4620 H   0  0  0  0  0  0  0  0  0  0  0  0
   12.2170   15.5960   35.2290 H   0  0  0  0  0  0  0  0  0  0  0  0
   10.7680   17.8890   31.8800 H   0  0  0  0  0  0  0  0  0  0  0  0
    9.6610   16.7580   34.4580 H   0  0  0  0  0  0  0  0  0  0  0  0
   14.0510   13.5830   33.4740 H   0  0  0  0  0  0  0  0  0  0  0  0
   15.0650   14.2060   28.5210 H   0  0  0  0  0  0  0  0  0  0  0  0
   12.1000   20.1230   25.7350 H   0  0  0  0  0  0  0  0  0  0  0  0
   13.9240   18.7680   23.8470 H   0  0  0  0  0  0  0  0  0  0  0  0
  1 23  1  0  0  0  0
  1  6  1  0  0  0  0
  2  1  2  0  0  0  0
  3  2  1  0  0  0  0
  3  4  2  0  0  0  0
  4  5  1  0  0  0  0
  5  6  2  0  0  0  0
  5 25  1  0  0  0  0
  6  7  1  0  0  0  0
  7  8  2  0  0  0  0
  7 17  1  0  0  0  0
  8  9  1  0  0  0  0
  9 10  2  0  0  0  0
  9 11  1  0  0  0  0
 11 12  1  0  0  0  0
 12 19  1  0  0  0  0
 12 13  2  0  0  0  0
 13 26  1  0  0  0  0
 14 13  1  0  0  0  0
 14 18  1  0  0  0  0
 15 14  2  0  0  0  0
 16 11  2  0  0  0  0
 16 15  1  0  0  0  0
 17 16  1  0  0  0  0
 18 28  1  0  0  0  0
 20  8  1  0  0  0  0
 21  4  1  0  0  0  0
 22  3  1  0  0  0  0
 24  2  1  0  0  0  0
 27 15  1  0  0  0  0
 29 19  1  0  0  0  0
 30 20  1  0  0  0  0
 31 21  1  0  0  0  0
 32 22  1  0  0  0  0
M  END
>  <Pose>
1

>  <Score>
-5.26

$$$$

 OpenBabel10152114563D

 32 34  0  0  0  0  0  0  0  0999 V2000
   13.8770   16.7910   26.7750 C   0  0  0  0  0  0  0  0  0  0  0  0
   13.4910   17.4550   25.6060 C   0  0  0  0  0  0  0  0  0  0  0  0
   12.9140   18.7140   25.7060 C   0  0  0  0  0  0  0  0  0  0  0  0
   12.7160   19.3010   26.9540 C   0  0  0  0  0  0  0  0  0  0  0  0
   13.0960   18.6490   28.1200 C   0  0  0  0  0  0  0  0  0  0  0  0
   13.6950   17.3870   28.0370 C   0  0  0  0  0  0  0  0  0  0  0  0
   14.1390   16.6960   29.2600 C   0  0  0  0  0  0  0  0  0  0  0  0
   13.3740   15.7800   29.8870 C   0  0  0  0  0  0  0  0  0  0  0  0
   13.8980   15.1810   31.1440 C   0  0  0  0  0  0  0  0  0  0  0  0
   13.2740   14.3520   31.8030 O   0  0  0  0  0  0  0  0  0  0  0  0
   15.2230   15.6220   31.5960 C   0  0  0  0  0  0  0  0  0  0  0  0
   15.8000   15.1240   32.7710 C   0  0  0  0  0  0  0  0  0  0  0  0
   17.0600   15.5560   33.1750 C   0  0  0  0  0  0  0  0  0  0  0  0
   17.7390   16.4870   32.3940 C   0  0  0  0  0  0  0  0  0  0  0  0
   17.1760   16.9890   31.2240 C   0  0  0  0  0  0  0  0  0  0  0  0
   15.9110   16.5560   30.8270 C   0  0  0  0  0  0  0  0  0  0  0  0
   15.4000   17.0930   29.6730 O   0  0  0  0  0  0  0  0  0  0  0  0
   18.9760   16.9390   32.7480 O   0  0  0  0  0  0  0  0  0  0  0  0
   15.1780   14.2080   33.5770 O   0  0  0  0  0  0  0  0  0  0  0  0
   12.1340   15.3530   29.4470 O   0  0  0  0  0  0  0  0  0  0  0  0
   12.1450   20.5380   27.0400 O   0  0  0  0  0  0  0  0  0  0  0  0
   12.5270   19.4210   24.6020 O   0  0  0  0  0  0  0  0  0  0  0  0
   14.3220   15.8000   26.6970 H   0  0  0  0  0  0  0  0  0  0  0  0
   13.6460   16.9760   24.6450 H   0  0  0  0  0  0  0  0  0  0  0  0
   12.9300   19.1310   29.0800 H   0  0  0  0  0  0  0  0  0  0  0  0
   17.4890   15.1600   34.0900 H   0  0  0  0  0  0  0  0  0  0  0  0
   17.7220   17.7160   30.6280 H   0  0  0  0  0  0  0  0  0  0  0  0
   18.9280   17.9000   32.8940 H   0  0  0  0  0  0  0  0  0  0  0  0
   14.9670   14.6480   34.4330 H   0  0  0  0  0  0  0  0  0  0  0  0
   12.0990   15.4170   28.4780 H   0  0  0  0  0  0  0  0  0  0  0  0
   11.2430   20.4220   26.6810 H   0  0  0  0  0  0  0  0  0  0  0  0
   11.7060   19.8980   24.8160 H   0  0  0  0  0  0  0  0  0  0  0  0
  1  6  1  0  0  0  0
  2  3  1  0  0  0  0
  2  1  2  0  0  0  0
  3  4  2  0  0  0  0
  4 21  1  0  0  0  0
  4  5  1  0  0  0  0
  5 25  1  0  0  0  0
  6  5  2  0  0  0  0
  6  7  1  0  0  0  0
  7 17  1  0  0  0  0
  7  8  2  0  0  0  0
  8  9  1  0  0  0  0
  9 11  1  0  0  0  0
  9 10  2  0  0  0  0
 11 12  1  0  0  0  0
 12 13  2  0  0  0  0
 12 19  1  0  0  0  0
 13 26  1  0  0  0  0
 14 18  1  0  0  0  0
 14 13  1  0  0  0  0
 15 14  2  0  0  0  0
 16 15  1  0  0  0  0
 16 11  2  0  0  0  0
 17 16  1  0  0  0  0
 18 28  1  0  0  0  0
 19 29  1  0  0  0  0
 20  8  1  0  0  0  0
 22 32  1  0  0  0  0
 22  3  1  0  0  0  0
 23  1  1  0  0  0  0
 24  2  1  0  0  0  0
 27 15  1  0  0  0  0
 30 20  1  0  0  0  0
 31 21  1  0  0  0  0
M  END
>  <Pose>
1

>  <Score>
-5.12

$$$$

 OpenBabel10152114563D

 32 34  0  0  0  0  0  0  0  0999 V2000
   11.8270   18.6150   30.0970 C   0  0  0  0  0  0  0  0  0  0  0  0
   10.7220   19.4310   29.8350 C   0  0  0  0  0  0  0  0  0  0  0  0
   10.7700   20.3050   28.7580 C   0  0  0  0  0  0  0  0  0  0  0  0
   11.9080   20.3750   27.9580 C   0  0  0  0  0  0  0  0  0  0  0  0
   13.0110   19.5690   28.2100 C   0  0  0  0  0  0  0  0  0  0  0  0
   12.9730   18.6680   29.2800 C   0  0  0  0  0  0  0  0  0  0  0  0
   14.1170   17.7780   29.5410 C   0  0  0  0  0  0  0  0  0  0  0  0
   15.3060   18.2440   29.9770 C   0  0  0  0  0  0  0  0  0  0  0  0
   16.4100   17.2640   30.1590 C   0  0  0  0  0  0  0  0  0  0  0  0
   17.5360   17.5850   30.5330 O   0  0  0  0  0  0  0  0  0  0  0  0
   16.1140   15.8570   29.8670 C   0  0  0  0  0  0  0  0  0  0  0  0
   17.0890   14.8600   29.9990 C   0  0  0  0  0  0  0  0  0  0  0  0
   16.7800   13.5310   29.7190 C   0  0  0  0  0  0  0  0  0  0  0  0
   15.4900   13.2080   29.3090 C   0  0  0  0  0  0  0  0  0  0  0  0
   14.5120   14.1900   29.1740 C   0  0  0  0  0  0  0  0  0  0  0  0
   14.8290   15.5200   29.4520 C   0  0  0  0  0  0  0  0  0  0  0  0
   13.8310   16.4470   29.2900 O   0  0  0  0  0  0  0  0  0  0  0  0
   15.1390   11.9210   29.0250 O   0  0  0  0  0  0  0  0  0  0  0  0
   18.3730   15.1200   30.3970 O   0  0  0  0  0  0  0  0  0  0  0  0
   15.5750   19.5690   30.2700 O   0  0  0  0  0  0  0  0  0  0  0  0
   11.9460   21.2410   26.9020 O   0  0  0  0  0  0  0  0  0  0  0  0
    9.7200   21.1200   28.4400 O   0  0  0  0  0  0  0  0  0  0  0  0
   11.7920   17.9340   30.9470 H   0  0  0  0  0  0  0  0  0  0  0  0
    9.8480   19.3680   30.4760 H   0  0  0  0  0  0  0  0  0  0  0  0
   13.8850   19.6430   27.5680 H   0  0  0  0  0  0  0  0  0  0  0  0
   17.5500   12.7740   29.8250 H   0  0  0  0  0  0  0  0  0  0  0  0
   13.5100   13.9170   28.8520 H   0  0  0  0  0  0  0  0  0  0  0  0
   14.4740   11.6270   29.6700 H   0  0  0  0  0  0  0  0  0  0  0  0
   18.7920   15.6990   29.7180 H   0  0  0  0  0  0  0  0  0  0  0  0
   14.8710   20.1280   29.9000 H   0  0  0  0  0  0  0  0  0  0  0  0
   11.1000   21.0970   26.4330 H   0  0  0  0  0  0  0  0  0  0  0  0
    9.4030   20.8810   27.5520 H   0  0  0  0  0  0  0  0  0  0  0  0
  1 23  1  0  0  0  0
  2  1  1  0  0  0  0
  2 24  1  0  0  0  0
  3  2  2  0  0  0  0
  4  5  2  0  0  0  0
  4  3  1  0  0  0  0
  5  6  1  0  0  0  0
  6  7  1  0  0  0  0
  6  1  2  0  0  0  0
  7  8  2  0  0  0  0
  8  9  1  0  0  0  0
  8 20  1  0  0  0  0
  9 10  2  0  0  0  0
 11 12  1  0  0  0  0
 11  9  1  0  0  0  0
 12 19  1  0  0  0  0
 13 26  1  0  0  0  0
 13 12  2  0  0  0  0
 14 13  1  0  0  0  0
 15 14  2  0  0  0  0
 15 16  1  0  0  0  0
 16 11  2  0  0  0  0
 17 16  1  0  0  0  0
 17  7  1  0  0  0  0
 18 14  1  0  0  0  0
 18 28  1  0  0  0  0
 21  4  1  0  0  0  0
 22  3  1  0  0  0  0
 25  5  1  0  0  0  0
 27 15  1  0  0  0  0
 29 19  1  0  0  0  0
 30 20  1  0  0  0  0
 31 21  1  0  0  0  0
 32 22  1  0  0  0  0
M  END
>  <Pose>
1

>  <Score>
-5.08

$$$$
