
 OpenBabel10152114563D

 32 34  0  0  0  0  0  0  0  0999 V2000
   22.5000   13.2570   29.7170 C   0  0  0  0  0  0  0  0  0  0  0  0
   22.7690   14.3660   30.5250 C   0  0  0  0  0  0  0  0  0  0  0  0
   23.4730   15.4360   29.9900 C   0  0  0  0  0  0  0  0  0  0  0  0
   23.9130   15.3980   28.6680 C   0  0  0  0  0  0  0  0  0  0  0  0
   23.6510   14.3010   27.8570 C   0  0  0  0  0  0  0  0  0  0  0  0
   22.9270   13.2220   28.3760 C   0  0  0  0  0  0  0  0  0  0  0  0
   22.6070   12.0660   27.5210 C   0  0  0  0  0  0  0  0  0  0  0  0
   21.7100   12.1400   26.5170 C   0  0  0  0  0  0  0  0  0  0  0  0
   21.4230   10.8990   25.7490 C   0  0  0  0  0  0  0  0  0  0  0  0
   20.6110   10.8530   24.8280 O   0  0  0  0  0  0  0  0  0  0  0  0
   22.1570    9.6880   26.1320 C   0  0  0  0  0  0  0  0  0  0  0  0
   21.9510    8.4670   25.4770 C   0  0  0  0  0  0  0  0  0  0  0  0
   22.6640    7.3340   25.8590 C   0  0  0  0  0  0  0  0  0  0  0  0
   23.5840    7.4310   26.8980 C   0  0  0  0  0  0  0  0  0  0  0  0
   23.7970    8.6380   27.5590 C   0  0  0  0  0  0  0  0  0  0  0  0
   23.0770    9.7690   27.1740 C   0  0  0  0  0  0  0  0  0  0  0  0
   23.3170   10.9280   27.8670 O   0  0  0  0  0  0  0  0  0  0  0  0
   24.3060    6.3490   27.3070 O   0  0  0  0  0  0  0  0  0  0  0  0
   21.0600    8.3140   24.4480 O   0  0  0  0  0  0  0  0  0  0  0  0
   21.0340   13.2890   26.1450 O   0  0  0  0  0  0  0  0  0  0  0  0
   24.6070   16.4550   28.1520 O   0  0  0  0  0  0  0  0  0  0  0  0
   23.7570   16.5540   30.7220 O   0  0  0  0  0  0  0  0  0  0  0  0
   21.9540   12.4150   30.1400 H   0  0  0  0  0  0  0  0  0  0  0  0
   22.4250   14.3720   31.5550 H   0  0  0  0  0  0  0  0  0  0  0  0
   24.0060   14.3000   26.8300 H   0  0  0  0  0  0  0  0  0  0  0  0
   22.4890    6.3970   25.3390 H   0  0  0  0  0  0  0  0  0  0  0  0
   24.5190    8.6930   28.3690 H   0  0  0  0  0  0  0  0  0  0  0  0
   23.8530    5.5400   27.0130 H   0  0  0  0  0  0  0  0  0  0  0  0
   20.1500    8.3930   24.8180 H   0  0  0  0  0  0  0  0  0  0  0  0
   21.5950   13.8090   25.5450 H   0  0  0  0  0  0  0  0  0  0  0  0
   24.7150   16.2420   27.2040 H   0  0  0  0  0  0  0  0  0  0  0  0
   24.6560   16.4650   31.0820 H   0  0  0  0  0  0  0  0  0  0  0  0
  1 23  1  0  0  0  0
  1  2  1  0  0  0  0
  2 24  1  0  0  0  0
  3  2  2  0  0  0  0
  3 22  1  0  0  0  0
  4  3  1  0  0  0  0
  5  6  1  0  0  0  0
  5  4  2  0  0  0  0
  6  1  2  0  0  0  0
  7 17  1  0  0  0  0
  7  6  1  0  0  0  0
  8  7  2  0  0  0  0
  9 11  1  0  0  0  0
  9  8  1  0  0  0  0
 10  9  2  0  0  0  0
 11 16  1  0  0  0  0
 12 13  1  0  0  0  0
 12 11  2  0  0  0  0
 13 14  2  0  0  0  0
 14 18  1  0  0  0  0
 14 15  1  0  0  0  0
 15 27  1  0  0  0  0
 16 15  2  0  0  0  0
 16 17  1  0  0  0  0
 19 29  1  0  0  0  0
 19 12  1  0  0  0  0
 20  8  1  0  0  0  0
 21  4  1  0  0  0  0
 22 32  1  0  0  0  0
 25  5  1  0  0  0  0
 26 13  1  0  0  0  0
 28 18  1  0  0  0  0
 30 20  1  0  0  0  0
 31 21  1  0  0  0  0
M  END
>  <Pose>
2

>  <Score>
-4.56

$$$$

 OpenBabel10152114563D

 32 34  0  0  0  0  0  0  0  0999 V2000
   22.2680   13.4150   30.5820 C   0  0  0  0  0  0  0  0  0  0  0  0
   22.5990   14.3500   31.5670 C   0  0  0  0  0  0  0  0  0  0  0  0
   23.6500   15.2280   31.3370 C   0  0  0  0  0  0  0  0  0  0  0  0
   24.3690   15.1690   30.1460 C   0  0  0  0  0  0  0  0  0  0  0  0
   24.0480   14.2440   29.1610 C   0  0  0  0  0  0  0  0  0  0  0  0
   22.9790   13.3640   29.3680 C   0  0  0  0  0  0  0  0  0  0  0  0
   22.5990   12.4010   28.3200 C   0  0  0  0  0  0  0  0  0  0  0  0
   21.7860   12.7350   27.2970 C   0  0  0  0  0  0  0  0  0  0  0  0
   21.4240   11.6710   26.3220 C   0  0  0  0  0  0  0  0  0  0  0  0
   20.6770   11.8640   25.3660 O   0  0  0  0  0  0  0  0  0  0  0  0
   21.9980   10.3380   26.5400 C   0  0  0  0  0  0  0  0  0  0  0  0
   21.7100    9.2680   25.6840 C   0  0  0  0  0  0  0  0  0  0  0  0
   22.2710    8.0130   25.9110 C   0  0  0  0  0  0  0  0  0  0  0  0
   23.1210    7.8390   26.9990 C   0  0  0  0  0  0  0  0  0  0  0  0
   23.4140    8.8960   27.8580 C   0  0  0  0  0  0  0  0  0  0  0  0
   22.8460   10.1490   27.6270 C   0  0  0  0  0  0  0  0  0  0  0  0
   23.1590   11.1490   28.5110 O   0  0  0  0  0  0  0  0  0  0  0  0
   23.6950    6.6300   27.2620 O   0  0  0  0  0  0  0  0  0  0  0  0
   20.8810    9.3820   24.6000 O   0  0  0  0  0  0  0  0  0  0  0  0
   21.2640   13.9980   27.0840 O   0  0  0  0  0  0  0  0  0  0  0  0
   25.4030   16.0350   29.9310 O   0  0  0  0  0  0  0  0  0  0  0  0
   24.0170   16.1730   32.2540 O   0  0  0  0  0  0  0  0  0  0  0  0
   21.4470   12.7220   30.7660 H   0  0  0  0  0  0  0  0  0  0  0  0
   22.0330   14.3740   32.4930 H   0  0  0  0  0  0  0  0  0  0  0  0
   24.6250   14.2210   28.2400 H   0  0  0  0  0  0  0  0  0  0  0  0
   22.0340    7.1960   25.2370 H   0  0  0  0  0  0  0  0  0  0  0  0
   24.0800    8.7390   28.7020 H   0  0  0  0  0  0  0  0  0  0  0  0
   23.0720    5.9270   27.0120 H   0  0  0  0  0  0  0  0  0  0  0  0
   20.0070    8.9970   24.8420 H   0  0  0  0  0  0  0  0  0  0  0  0
   21.5050   14.2980   26.1910 H   0  0  0  0  0  0  0  0  0  0  0  0
   26.1380   15.6840   30.4730 H   0  0  0  0  0  0  0  0  0  0  0  0
   24.7600   16.6840   31.8880 H   0  0  0  0  0  0  0  0  0  0  0  0
  1 23  1  0  0  0  0
  1  2  1  0  0  0  0
  2 24  1  0  0  0  0
  3  2  2  0  0  0  0
  3 22  1  0  0  0  0
  4  3  1  0  0  0  0
  5  6  1  0  0  0  0
  5  4  2  0  0  0  0
  6  1  2  0  0  0  0
  7 17  1  0  0  0  0
  7  6  1  0  0  0  0
  8  7  2  0  0  0  0
  9 11  1  0  0  0  0
  9  8  1  0  0  0  0
 10  9  2  0  0  0  0
 11 16  1  0  0  0  0
 12 13  1  0  0  0  0
 12 11  2  0  0  0  0
 13 14  2  0  0  0  0
 14 18  1  0  0  0  0
 14 15  1  0  0  0  0
 15 27  1  0  0  0  0
 16 15  2  0  0  0  0
 16 17  1  0  0  0  0
 19 29  1  0  0  0  0
 19 12  1  0  0  0  0
 20  8  1  0  0  0  0
 21  4  1  0  0  0  0
 21 31  1  0  0  0  0
 25  5  1  0  0  0  0
 26 13  1  0  0  0  0
 28 18  1  0  0  0  0
 30 20  1  0  0  0  0
 32 22  1  0  0  0  0
M  END
>  <Pose>
1

>  <Score>
-4.55

$$$$

 OpenBabel10152114563D

 32 34  0  0  0  0  0  0  0  0999 V2000
   23.2980    8.3900   25.6030 C   0  0  0  0  0  0  0  0  0  0  0  0
   22.4460    8.2610   24.5010 C   0  0  0  0  0  0  0  0  0  0  0  0
   21.3650    9.1240   24.3800 C   0  0  0  0  0  0  0  0  0  0  0  0
   21.1290   10.0970   25.3490 C   0  0  0  0  0  0  0  0  0  0  0  0
   21.9680   10.2330   26.4470 C   0  0  0  0  0  0  0  0  0  0  0  0
   23.0730    9.3830   26.5750 C   0  0  0  0  0  0  0  0  0  0  0  0
   23.9970    9.5360   27.7120 C   0  0  0  0  0  0  0  0  0  0  0  0
   24.1650    8.5690   28.6380 C   0  0  0  0  0  0  0  0  0  0  0  0
   25.0840    8.8480   29.7740 C   0  0  0  0  0  0  0  0  0  0  0  0
   25.2940    8.0440   30.6790 O   0  0  0  0  0  0  0  0  0  0  0  0
   25.7550   10.1530   29.7890 C   0  0  0  0  0  0  0  0  0  0  0  0
   26.6310   10.5140   30.8200 C   0  0  0  0  0  0  0  0  0  0  0  0
   27.2580   11.7580   30.8090 C   0  0  0  0  0  0  0  0  0  0  0  0
   27.0030   12.6350   29.7590 C   0  0  0  0  0  0  0  0  0  0  0  0
   26.1330   12.2870   28.7290 C   0  0  0  0  0  0  0  0  0  0  0  0
   25.5050   11.0420   28.7480 C   0  0  0  0  0  0  0  0  0  0  0  0
   24.6500   10.7580   27.7150 O   0  0  0  0  0  0  0  0  0  0  0  0
   27.5930   13.8630   29.7040 O   0  0  0  0  0  0  0  0  0  0  0  0
   26.9190    9.6920   31.8770 O   0  0  0  0  0  0  0  0  0  0  0  0
   23.5460    7.3320   28.6080 O   0  0  0  0  0  0  0  0  0  0  0  0
   20.0610   10.9380   25.2210 O   0  0  0  0  0  0  0  0  0  0  0  0
   20.5030    9.0590   23.3210 O   0  0  0  0  0  0  0  0  0  0  0  0
   24.1410    7.7080   25.7010 H   0  0  0  0  0  0  0  0  0  0  0  0
   22.6430    7.4910   23.7620 H   0  0  0  0  0  0  0  0  0  0  0  0
   21.7600   11.0010   27.1870 H   0  0  0  0  0  0  0  0  0  0  0  0
   27.9320   12.0200   31.6180 H   0  0  0  0  0  0  0  0  0  0  0  0
   25.9460   12.9870   27.9180 H   0  0  0  0  0  0  0  0  0  0  0  0
   28.5200   13.7780   29.9830 H   0  0  0  0  0  0  0  0  0  0  0  0
   27.8990    9.6120   31.9450 H   0  0  0  0  0  0  0  0  0  0  0  0
   23.7490    6.8530   29.4290 H   0  0  0  0  0  0  0  0  0  0  0  0
   19.2840   10.3470   25.1570 H   0  0  0  0  0  0  0  0  0  0  0  0
   19.8180    8.3980   23.5230 H   0  0  0  0  0  0  0  0  0  0  0  0
  1 23  1  0  0  0  0
  1  6  1  0  0  0  0
  2  1  2  0  0  0  0
  3  2  1  0  0  0  0
  3  4  2  0  0  0  0
  4  5  1  0  0  0  0
  5  6  2  0  0  0  0
  5 25  1  0  0  0  0
  6  7  1  0  0  0  0
  7 17  1  0  0  0  0
  7  8  2  0  0  0  0
  8  9  1  0  0  0  0
  9 11  1  0  0  0  0
  9 10  2  0  0  0  0
 11 12  1  0  0  0  0
 12 19  1  0  0  0  0
 13 12  2  0  0  0  0
 13 26  1  0  0  0  0
 14 13  1  0  0  0  0
 15 16  1  0  0  0  0
 15 14  2  0  0  0  0
 16 11  2  0  0  0  0
 17 16  1  0  0  0  0
 18 14  1  0  0  0  0
 18 28  1  0  0  0  0
 19 29  1  0  0  0  0
 20  8  1  0  0  0  0
 20 30  1  0  0  0  0
 21  4  1  0  0  0  0
 22 32  1  0  0  0  0
 22  3  1  0  0  0  0
 24  2  1  0  0  0  0
 27 15  1  0  0  0  0
 31 21  1  0  0  0  0
M  END
>  <Pose>
1

>  <Score>
-4.32

$$$$

 OpenBabel10152114563D

 32 34  0  0  0  0  0  0  0  0999 V2000
   21.5940    8.4370   22.1980 C   0  0  0  0  0  0  0  0  0  0  0  0
   21.4660    8.2000   20.8260 C   0  0  0  0  0  0  0  0  0  0  0  0
   22.4430    8.6820   19.9650 C   0  0  0  0  0  0  0  0  0  0  0  0
   23.5280    9.4010   20.4620 C   0  0  0  0  0  0  0  0  0  0  0  0
   23.6640    9.6410   21.8230 C   0  0  0  0  0  0  0  0  0  0  0  0
   22.6980    9.1460   22.7080 C   0  0  0  0  0  0  0  0  0  0  0  0
   22.8440    9.3580   24.1580 C   0  0  0  0  0  0  0  0  0  0  0  0
   23.3340    8.4070   24.9780 C   0  0  0  0  0  0  0  0  0  0  0  0
   23.3900    8.7070   26.4350 C   0  0  0  0  0  0  0  0  0  0  0  0
   23.8020    7.9050   27.2690 O   0  0  0  0  0  0  0  0  0  0  0  0
   22.9240   10.0300   26.8650 C   0  0  0  0  0  0  0  0  0  0  0  0
   22.9280   10.4050   28.2140 C   0  0  0  0  0  0  0  0  0  0  0  0
   22.4830   11.6680   28.5960 C   0  0  0  0  0  0  0  0  0  0  0  0
   22.0370   12.5530   27.6180 C   0  0  0  0  0  0  0  0  0  0  0  0
   22.0270   12.1910   26.2730 C   0  0  0  0  0  0  0  0  0  0  0  0
   22.4700   10.9220   25.8980 C   0  0  0  0  0  0  0  0  0  0  0  0
   22.4270   10.6160   24.5630 O   0  0  0  0  0  0  0  0  0  0  0  0
   21.5920   13.8000   27.9420 O   0  0  0  0  0  0  0  0  0  0  0  0
   23.3560    9.5770   29.2170 O   0  0  0  0  0  0  0  0  0  0  0  0
   23.7920    7.1680   24.5660 O   0  0  0  0  0  0  0  0  0  0  0  0
   24.4810    9.8730   19.6060 O   0  0  0  0  0  0  0  0  0  0  0  0
   22.3840    8.4750   18.6150 O   0  0  0  0  0  0  0  0  0  0  0  0
   20.8240    8.0640   22.8720 H   0  0  0  0  0  0  0  0  0  0  0  0
   20.6090    7.6460   20.4570 H   0  0  0  0  0  0  0  0  0  0  0  0
   24.5210   10.2040   22.1840 H   0  0  0  0  0  0  0  0  0  0  0  0
   22.4920   11.9400   29.6470 H   0  0  0  0  0  0  0  0  0  0  0  0
   21.6740   12.8960   25.5250 H   0  0  0  0  0  0  0  0  0  0  0  0
   22.0550   14.4520   27.3880 H   0  0  0  0  0  0  0  0  0  0  0  0
   22.6540    9.5460   29.9080 H   0  0  0  0  0  0  0  0  0  0  0  0
   23.1970    6.4780   24.9040 H   0  0  0  0  0  0  0  0  0  0  0  0
   24.6490    9.1330   18.9880 H   0  0  0  0  0  0  0  0  0  0  0  0
   22.0180    7.5870   18.4570 H   0  0  0  0  0  0  0  0  0  0  0  0
  1  6  1  0  0  0  0
  1 23  1  0  0  0  0
  2  1  2  0  0  0  0
  3  4  2  0  0  0  0
  3  2  1  0  0  0  0
  4  5  1  0  0  0  0
  5 25  1  0  0  0  0
  5  6  2  0  0  0  0
  6  7  1  0  0  0  0
  7 17  1  0  0  0  0
  7  8  2  0  0  0  0
  8  9  1  0  0  0  0
  9 11  1  0  0  0  0
  9 10  2  0  0  0  0
 11 12  1  0  0  0  0
 12 13  2  0  0  0  0
 12 19  1  0  0  0  0
 13 26  1  0  0  0  0
 14 18  1  0  0  0  0
 14 13  1  0  0  0  0
 15 14  2  0  0  0  0
 16 15  1  0  0  0  0
 16 11  2  0  0  0  0
 17 16  1  0  0  0  0
 19 29  1  0  0  0  0
 20 30  1  0  0  0  0
 20  8  1  0  0  0  0
 21  4  1  0  0  0  0
 22  3  1  0  0  0  0
 24  2  1  0  0  0  0
 27 15  1  0  0  0  0
 28 18  1  0  0  0  0
 31 21  1  0  0  0  0
 32 22  1  0  0  0  0
M  END
>  <Pose>
1

>  <Score>
-3.88

$$$$
