
 OpenBabel10152114563D

 32 34  0  0  0  0  0  0  0  0999 V2000
  -12.4110    3.4740    4.1650 C   0  0  0  0  0  0  0  0  0  0  0  0
  -11.2330    3.8970    4.7900 C   0  0  0  0  0  0  0  0  0  0  0  0
  -10.7870    5.1950    4.5800 C   0  0  0  0  0  0  0  0  0  0  0  0
  -11.4990    6.0580    3.7500 C   0  0  0  0  0  0  0  0  0  0  0  0
  -12.6700    5.6480    3.1250 C   0  0  0  0  0  0  0  0  0  0  0  0
  -13.1440    4.3480    3.3410 C   0  0  0  0  0  0  0  0  0  0  0  0
  -14.4030    3.9070    2.7180 C   0  0  0  0  0  0  0  0  0  0  0  0
  -15.5420    3.7580    3.4240 C   0  0  0  0  0  0  0  0  0  0  0  0
  -16.7450    3.2570    2.7060 C   0  0  0  0  0  0  0  0  0  0  0  0
  -17.8260    3.0690    3.2590 O   0  0  0  0  0  0  0  0  0  0  0  0
  -16.6020    2.9790    1.2720 C   0  0  0  0  0  0  0  0  0  0  0  0
  -17.6730    2.4960    0.5090 C   0  0  0  0  0  0  0  0  0  0  0  0
  -17.5120    2.2440   -0.8510 C   0  0  0  0  0  0  0  0  0  0  0  0
  -16.2740    2.4820   -1.4410 C   0  0  0  0  0  0  0  0  0  0  0  0
  -15.2020    2.9620   -0.6930 C   0  0  0  0  0  0  0  0  0  0  0  0
  -15.3690    3.2080    0.6700 C   0  0  0  0  0  0  0  0  0  0  0  0
  -14.2760    3.6680    1.3590 O   0  0  0  0  0  0  0  0  0  0  0  0
  -16.0680    2.2510   -2.7690 O   0  0  0  0  0  0  0  0  0  0  0  0
  -18.9110    2.2440    1.0370 O   0  0  0  0  0  0  0  0  0  0  0  0
  -15.6770    4.0410    4.7720 O   0  0  0  0  0  0  0  0  0  0  0  0
  -11.0500    7.3310    3.5480 O   0  0  0  0  0  0  0  0  0  0  0  0
   -9.6510    5.6730    5.1700 O   0  0  0  0  0  0  0  0  0  0  0  0
  -12.7570    2.4530    4.3250 H   0  0  0  0  0  0  0  0  0  0  0  0
  -10.6880    3.2060    5.4250 H   0  0  0  0  0  0  0  0  0  0  0  0
  -13.2050    6.3430    2.4840 H   0  0  0  0  0  0  0  0  0  0  0  0
  -18.3530    1.8680   -1.4240 H   0  0  0  0  0  0  0  0  0  0  0  0
  -14.2430    3.1400   -1.1730 H   0  0  0  0  0  0  0  0  0  0  0  0
  -16.5730    2.9040   -3.2830 H   0  0  0  0  0  0  0  0  0  0  0  0
  -19.5440    2.8960    0.6560 H   0  0  0  0  0  0  0  0  0  0  0  0
  -15.6000    3.2160    5.2810 H   0  0  0  0  0  0  0  0  0  0  0  0
  -11.3710    7.8340    4.3230 H   0  0  0  0  0  0  0  0  0  0  0  0
   -9.8000    6.6040    5.4120 H   0  0  0  0  0  0  0  0  0  0  0  0
  1 23  1  0  0  0  0
  1  2  1  0  0  0  0
  2 24  1  0  0  0  0
  3  2  2  0  0  0  0
  3 22  1  0  0  0  0
  4  3  1  0  0  0  0
  5  6  1  0  0  0  0
  5  4  2  0  0  0  0
  6  1  2  0  0  0  0
  7  6  1  0  0  0  0
  7  8  2  0  0  0  0
  8 20  1  0  0  0  0
  9 10  2  0  0  0  0
  9  8  1  0  0  0  0
 11  9  1  0  0  0  0
 12 19  1  0  0  0  0
 12 11  2  0  0  0  0
 13 12  1  0  0  0  0
 14 13  2  0  0  0  0
 14 15  1  0  0  0  0
 15 16  2  0  0  0  0
 16 11  1  0  0  0  0
 16 17  1  0  0  0  0
 17  7  1  0  0  0  0
 18 14  1  0  0  0  0
 20 30  1  0  0  0  0
 21  4  1  0  0  0  0
 21 31  1  0  0  0  0
 22 32  1  0  0  0  0
 25  5  1  0  0  0  0
 26 13  1  0  0  0  0
 27 15  1  0  0  0  0
 28 18  1  0  0  0  0
 29 19  1  0  0  0  0
M  END
>  <Pose>
1

>  <Score>
-5.21

$$$$

 OpenBabel10152114563D

 32 34  0  0  0  0  0  0  0  0999 V2000
  -11.4930    3.0410    4.2910 C   0  0  0  0  0  0  0  0  0  0  0  0
  -10.2360    3.2480    4.8680 C   0  0  0  0  0  0  0  0  0  0  0  0
   -9.6940    4.5270    4.8610 C   0  0  0  0  0  0  0  0  0  0  0  0
  -10.3890    5.5830    4.2770 C   0  0  0  0  0  0  0  0  0  0  0  0
  -11.6380    5.3870    3.7020 C   0  0  0  0  0  0  0  0  0  0  0  0
  -12.2080    4.1080    3.7170 C   0  0  0  0  0  0  0  0  0  0  0  0
  -13.5470    3.8870    3.1450 C   0  0  0  0  0  0  0  0  0  0  0  0
  -14.6630    3.8990    3.9020 C   0  0  0  0  0  0  0  0  0  0  0  0
  -15.9600    3.6130    3.2310 C   0  0  0  0  0  0  0  0  0  0  0  0
  -17.0320    3.5810    3.8310 O   0  0  0  0  0  0  0  0  0  0  0  0
  -15.9260    3.3590    1.7860 C   0  0  0  0  0  0  0  0  0  0  0  0
  -17.0920    3.0710    1.0650 C   0  0  0  0  0  0  0  0  0  0  0  0
  -17.0320    2.8360   -0.3060 C   0  0  0  0  0  0  0  0  0  0  0  0
  -15.8000    2.8940   -0.9500 C   0  0  0  0  0  0  0  0  0  0  0  0
  -14.6340    3.1790   -0.2440 C   0  0  0  0  0  0  0  0  0  0  0  0
  -14.6990    3.4080    1.1310 C   0  0  0  0  0  0  0  0  0  0  0  0
  -13.5190    3.6710    1.7770 O   0  0  0  0  0  0  0  0  0  0  0  0
  -15.6910    2.6730   -2.2910 O   0  0  0  0  0  0  0  0  0  0  0  0
  -18.3300    3.0010    1.6470 O   0  0  0  0  0  0  0  0  0  0  0  0
  -14.6930    4.1600    5.2610 O   0  0  0  0  0  0  0  0  0  0  0  0
   -9.8450    6.8350    4.2730 O   0  0  0  0  0  0  0  0  0  0  0  0
   -8.4760    4.7990    5.4190 O   0  0  0  0  0  0  0  0  0  0  0  0
  -11.9140    2.0360    4.2910 H   0  0  0  0  0  0  0  0  0  0  0  0
   -9.7060    2.4100    5.3100 H   0  0  0  0  0  0  0  0  0  0  0  0
  -12.1590    6.2300    3.2540 H   0  0  0  0  0  0  0  0  0  0  0  0
  -17.9470    2.6130   -0.8470 H   0  0  0  0  0  0  0  0  0  0  0  0
  -13.6810    3.2190   -0.7650 H   0  0  0  0  0  0  0  0  0  0  0  0
  -16.2010    3.3530   -2.7630 H   0  0  0  0  0  0  0  0  0  0  0  0
  -18.7200    3.9060    1.6440 H   0  0  0  0  0  0  0  0  0  0  0  0
  -15.3800    3.6120    5.6760 H   0  0  0  0  0  0  0  0  0  0  0  0
   -9.0870    6.7790    4.8890 H   0  0  0  0  0  0  0  0  0  0  0  0
   -8.5920    5.5020    6.0820 H   0  0  0  0  0  0  0  0  0  0  0  0
  1 23  1  0  0  0  0
  1  2  1  0  0  0  0
  2 24  1  0  0  0  0
  3  2  2  0  0  0  0
  3 22  1  0  0  0  0
  4  3  1  0  0  0  0
  5  6  1  0  0  0  0
  5  4  2  0  0  0  0
  6  1  2  0  0  0  0
  7  6  1  0  0  0  0
  7  8  2  0  0  0  0
  8 20  1  0  0  0  0
  9 10  2  0  0  0  0
  9  8  1  0  0  0  0
 11  9  1  0  0  0  0
 12 19  1  0  0  0  0
 12 11  2  0  0  0  0
 13 12  1  0  0  0  0
 14 13  2  0  0  0  0
 14 15  1  0  0  0  0
 15 16  2  0  0  0  0
 16 17  1  0  0  0  0
 16 11  1  0  0  0  0
 17  7  1  0  0  0  0
 18 14  1  0  0  0  0
 20 30  1  0  0  0  0
 21  4  1  0  0  0  0
 21 31  1  0  0  0  0
 22 32  1  0  0  0  0
 25  5  1  0  0  0  0
 26 13  1  0  0  0  0
 27 15  1  0  0  0  0
 28 18  1  0  0  0  0
 29 19  1  0  0  0  0
M  END
>  <Pose>
1

>  <Score>
-5.03

$$$$

 OpenBabel10152114563D

 32 34  0  0  0  0  0  0  0  0999 V2000
  -16.4300    1.9630    0.0390 C   0  0  0  0  0  0  0  0  0  0  0  0
  -17.1840    0.9190   -0.5060 C   0  0  0  0  0  0  0  0  0  0  0  0
  -18.1280    0.2830    0.2880 C   0  0  0  0  0  0  0  0  0  0  0  0
  -18.3120    0.6740    1.6120 C   0  0  0  0  0  0  0  0  0  0  0  0
  -17.5690    1.7100    2.1630 C   0  0  0  0  0  0  0  0  0  0  0  0
  -16.6250    2.3740    1.3710 C   0  0  0  0  0  0  0  0  0  0  0  0
  -15.8530    3.4990    1.9250 C   0  0  0  0  0  0  0  0  0  0  0  0
  -16.2360    4.7820    1.7660 C   0  0  0  0  0  0  0  0  0  0  0  0
  -15.3540    5.8440    2.3220 C   0  0  0  0  0  0  0  0  0  0  0  0
  -15.6010    7.0430    2.2170 O   0  0  0  0  0  0  0  0  0  0  0  0
  -14.1400    5.4090    3.0220 C   0  0  0  0  0  0  0  0  0  0  0  0
  -13.2420    6.3320    3.5730 C   0  0  0  0  0  0  0  0  0  0  0  0
  -12.0980    5.8930    4.2350 C   0  0  0  0  0  0  0  0  0  0  0  0
  -11.8620    4.5260    4.3440 C   0  0  0  0  0  0  0  0  0  0  0  0
  -12.7480    3.5980    3.8000 C   0  0  0  0  0  0  0  0  0  0  0  0
  -13.8890    4.0450    3.1340 C   0  0  0  0  0  0  0  0  0  0  0  0
  -14.7190    3.0890    2.6070 O   0  0  0  0  0  0  0  0  0  0  0  0
  -10.7570    4.0470    4.9830 O   0  0  0  0  0  0  0  0  0  0  0  0
  -13.4240    7.6870    3.4960 O   0  0  0  0  0  0  0  0  0  0  0  0
  -17.3930    5.1870    1.1230 O   0  0  0  0  0  0  0  0  0  0  0  0
  -19.2420    0.0400    2.3860 O   0  0  0  0  0  0  0  0  0  0  0  0
  -18.9060   -0.7350   -0.1880 O   0  0  0  0  0  0  0  0  0  0  0  0
  -15.6840    2.4560   -0.5830 H   0  0  0  0  0  0  0  0  0  0  0  0
  -17.0190    0.6230   -1.5380 H   0  0  0  0  0  0  0  0  0  0  0  0
  -17.7340    1.9950    3.1990 H   0  0  0  0  0  0  0  0  0  0  0  0
  -11.4140    6.6240    4.6540 H   0  0  0  0  0  0  0  0  0  0  0  0
  -12.5450    2.5350    3.8950 H   0  0  0  0  0  0  0  0  0  0  0  0
  -10.4280    4.7300    5.5930 H   0  0  0  0  0  0  0  0  0  0  0  0
  -12.9920    8.0990    4.2800 H   0  0  0  0  0  0  0  0  0  0  0  0
  -17.1690    5.8570    0.4550 H   0  0  0  0  0  0  0  0  0  0  0  0
  -18.9230    0.1560    3.3030 H   0  0  0  0  0  0  0  0  0  0  0  0
  -19.3390   -0.4350   -1.0060 H   0  0  0  0  0  0  0  0  0  0  0  0
  1  6  1  0  0  0  0
  2  1  2  0  0  0  0
  2  3  1  0  0  0  0
  3  4  2  0  0  0  0
  4  5  1  0  0  0  0
  4 21  1  0  0  0  0
  5 25  1  0  0  0  0
  6  7  1  0  0  0  0
  6  5  2  0  0  0  0
  7 17  1  0  0  0  0
  8  7  2  0  0  0  0
  8  9  1  0  0  0  0
  9 11  1  0  0  0  0
 10  9  2  0  0  0  0
 11 16  2  0  0  0  0
 11 12  1  0  0  0  0
 12 13  2  0  0  0  0
 13 14  1  0  0  0  0
 13 26  1  0  0  0  0
 14 18  1  0  0  0  0
 15 27  1  0  0  0  0
 15 14  2  0  0  0  0
 16 15  1  0  0  0  0
 17 16  1  0  0  0  0
 18 28  1  0  0  0  0
 19 12  1  0  0  0  0
 19 29  1  0  0  0  0
 20  8  1  0  0  0  0
 21 31  1  0  0  0  0
 22  3  1  0  0  0  0
 23  1  1  0  0  0  0
 24  2  1  0  0  0  0
 30 20  1  0  0  0  0
 32 22  1  0  0  0  0
M  END
>  <Pose>
1

>  <Score>
-4.70

$$$$

 OpenBabel10152114563D

 32 34  0  0  0  0  0  0  0  0999 V2000
  -15.2530    4.0880    3.9440 C   0  0  0  0  0  0  0  0  0  0  0  0
  -16.4470    4.4470    3.3100 C   0  0  0  0  0  0  0  0  0  0  0  0
  -16.3970    4.9590    2.0200 C   0  0  0  0  0  0  0  0  0  0  0  0
  -15.1740    5.1220    1.3740 C   0  0  0  0  0  0  0  0  0  0  0  0
  -13.9830    4.7670    1.9950 C   0  0  0  0  0  0  0  0  0  0  0  0
  -14.0160    4.2320    3.2880 C   0  0  0  0  0  0  0  0  0  0  0  0
  -12.7680    3.8150    3.9490 C   0  0  0  0  0  0  0  0  0  0  0  0
  -11.8860    4.7050    4.4470 C   0  0  0  0  0  0  0  0  0  0  0  0
  -10.6310    4.1770    5.0490 C   0  0  0  0  0  0  0  0  0  0  0  0
   -9.7550    4.9020    5.5140 O   0  0  0  0  0  0  0  0  0  0  0  0
  -10.4600    2.7200    5.0720 C   0  0  0  0  0  0  0  0  0  0  0  0
   -9.3100    2.1260    5.6080 C   0  0  0  0  0  0  0  0  0  0  0  0
   -9.1740    0.7410    5.6200 C   0  0  0  0  0  0  0  0  0  0  0  0
  -10.1960   -0.0450    5.0940 C   0  0  0  0  0  0  0  0  0  0  0  0
  -11.3430    0.5340    4.5580 C   0  0  0  0  0  0  0  0  0  0  0  0
  -11.4720    1.9230    4.5450 C   0  0  0  0  0  0  0  0  0  0  0  0
  -12.6160    2.4390    3.9930 O   0  0  0  0  0  0  0  0  0  0  0  0
  -10.1080   -1.4050    5.0840 O   0  0  0  0  0  0  0  0  0  0  0  0
   -8.2750    2.8490    6.1370 O   0  0  0  0  0  0  0  0  0  0  0  0
  -12.0610    6.0780    4.4420 O   0  0  0  0  0  0  0  0  0  0  0  0
  -15.1370    5.6290    0.1070 O   0  0  0  0  0  0  0  0  0  0  0  0
  -17.5270    5.3180    1.3410 O   0  0  0  0  0  0  0  0  0  0  0  0
  -15.2930    3.6920    4.9580 H   0  0  0  0  0  0  0  0  0  0  0  0
  -17.3890    4.3210    3.8350 H   0  0  0  0  0  0  0  0  0  0  0  0
  -13.0440    4.9040    1.4660 H   0  0  0  0  0  0  0  0  0  0  0  0
   -8.2750    0.2990    6.0380 H   0  0  0  0  0  0  0  0  0  0  0  0
  -12.1290   -0.0960    4.1510 H   0  0  0  0  0  0  0  0  0  0  0  0
   -9.1700   -1.6600    5.1140 H   0  0  0  0  0  0  0  0  0  0  0  0
   -8.6560    3.5520    6.7130 H   0  0  0  0  0  0  0  0  0  0  0  0
  -12.2190    6.3830    5.3510 H   0  0  0  0  0  0  0  0  0  0  0  0
  -16.0650    5.8600   -0.0960 H   0  0  0  0  0  0  0  0  0  0  0  0
  -17.2660    5.6590    0.4680 H   0  0  0  0  0  0  0  0  0  0  0  0
  1 23  1  0  0  0  0
  2 24  1  0  0  0  0
  2  1  1  0  0  0  0
  3  2  2  0  0  0  0
  4  5  2  0  0  0  0
  4  3  1  0  0  0  0
  5  6  1  0  0  0  0
  6  1  2  0  0  0  0
  6  7  1  0  0  0  0
  7 17  1  0  0  0  0
  7  8  2  0  0  0  0
  8  9  1  0  0  0  0
  9 11  1  0  0  0  0
  9 10  2  0  0  0  0
 11 12  1  0  0  0  0
 12 13  2  0  0  0  0
 12 19  1  0  0  0  0
 13 26  1  0  0  0  0
 14 13  1  0  0  0  0
 15 14  2  0  0  0  0
 16 15  1  0  0  0  0
 16 11  2  0  0  0  0
 17 16  1  0  0  0  0
 18 14  1  0  0  0  0
 18 28  1  0  0  0  0
 19 29  1  0  0  0  0
 20  8  1  0  0  0  0
 20 30  1  0  0  0  0
 21  4  1  0  0  0  0
 22  3  1  0  0  0  0
 25  5  1  0  0  0  0
 27 15  1  0  0  0  0
 31 21  1  0  0  0  0
 32 22  1  0  0  0  0
M  END
>  <Pose>
1

>  <Score>
-4.53

$$$$

 OpenBabel10152114563D

 32 34  0  0  0  0  0  0  0  0999 V2000
  -16.9770    1.2990    0.3950 C   0  0  0  0  0  0  0  0  0  0  0  0
  -17.5350    0.5010   -0.6090 C   0  0  0  0  0  0  0  0  0  0  0  0
  -17.4030    0.8940   -1.9340 C   0  0  0  0  0  0  0  0  0  0  0  0
  -16.7340    2.0730   -2.2550 C   0  0  0  0  0  0  0  0  0  0  0  0
  -16.1770    2.8730   -1.2660 C   0  0  0  0  0  0  0  0  0  0  0  0
  -16.2840    2.4820    0.0740 C   0  0  0  0  0  0  0  0  0  0  0  0
  -15.6670    3.2960    1.1350 C   0  0  0  0  0  0  0  0  0  0  0  0
  -16.2730    4.3860    1.6490 C   0  0  0  0  0  0  0  0  0  0  0  0
  -15.5380    5.1670    2.6810 C   0  0  0  0  0  0  0  0  0  0  0  0
  -15.9910    6.1850    3.2000 O   0  0  0  0  0  0  0  0  0  0  0  0
  -14.2130    4.6760    3.0760 C   0  0  0  0  0  0  0  0  0  0  0  0
  -13.4390    5.3460    4.0320 C   0  0  0  0  0  0  0  0  0  0  0  0
  -12.1850    4.8570    4.3910 C   0  0  0  0  0  0  0  0  0  0  0  0
  -11.7140    3.6940    3.7890 C   0  0  0  0  0  0  0  0  0  0  0  0
  -12.4740    3.0200    2.8360 C   0  0  0  0  0  0  0  0  0  0  0  0
  -13.7280    3.5170    2.4780 C   0  0  0  0  0  0  0  0  0  0  0  0
  -14.4270    2.8200    1.5260 O   0  0  0  0  0  0  0  0  0  0  0  0
  -10.4940    3.1760    4.1080 O   0  0  0  0  0  0  0  0  0  0  0  0
  -13.8520    6.4930    4.6550 O   0  0  0  0  0  0  0  0  0  0  0  0
  -17.5320    4.8340    1.2880 O   0  0  0  0  0  0  0  0  0  0  0  0
  -16.6130    2.4520   -3.5620 O   0  0  0  0  0  0  0  0  0  0  0  0
  -17.9140    0.1530   -2.9630 O   0  0  0  0  0  0  0  0  0  0  0  0
  -17.0870    0.9940    1.4340 H   0  0  0  0  0  0  0  0  0  0  0  0
  -18.0600   -0.4090   -0.3370 H   0  0  0  0  0  0  0  0  0  0  0  0
  -15.6590    3.7870   -1.5460 H   0  0  0  0  0  0  0  0  0  0  0  0
  -11.6000    5.3910    5.1330 H   0  0  0  0  0  0  0  0  0  0  0  0
  -12.0890    2.1140    2.3770 H   0  0  0  0  0  0  0  0  0  0  0  0
  -10.0890    3.7310    4.7960 H   0  0  0  0  0  0  0  0  0  0  0  0
  -13.1630    6.7480    5.3130 H   0  0  0  0  0  0  0  0  0  0  0  0
  -17.4720    5.3050    0.4410 H   0  0  0  0  0  0  0  0  0  0  0  0
  -16.7980    3.4130   -3.5600 H   0  0  0  0  0  0  0  0  0  0  0  0
  -18.8720    0.3170   -3.0130 H   0  0  0  0  0  0  0  0  0  0  0  0
  1 23  1  0  0  0  0
  2 24  1  0  0  0  0
  2  1  2  0  0  0  0
  3  2  1  0  0  0  0
  4  3  2  0  0  0  0
  4  5  1  0  0  0  0
  5  6  2  0  0  0  0
  6  1  1  0  0  0  0
  6  7  1  0  0  0  0
  7 17  1  0  0  0  0
  7  8  2  0  0  0  0
  8  9  1  0  0  0  0
  9 11  1  0  0  0  0
  9 10  2  0  0  0  0
 11 12  1  0  0  0  0
 12 13  2  0  0  0  0
 12 19  1  0  0  0  0
 13 26  1  0  0  0  0
 14 18  1  0  0  0  0
 14 13  1  0  0  0  0
 15 14  2  0  0  0  0
 16 15  1  0  0  0  0
 16 11  2  0  0  0  0
 17 16  1  0  0  0  0
 18 28  1  0  0  0  0
 19 29  1  0  0  0  0
 20  8  1  0  0  0  0
 21 31  1  0  0  0  0
 21  4  1  0  0  0  0
 22  3  1  0  0  0  0
 25  5  1  0  0  0  0
 27 15  1  0  0  0  0
 30 20  1  0  0  0  0
 32 22  1  0  0  0  0
M  END
>  <Pose>
1

>  <Score>
-4.45

$$$$
