
 OpenBabel10152114563D

 32 34  0  0  0  0  0  0  0  0999 V2000
  -27.4360   22.6670    7.5110 C   0  0  0  0  0  0  0  0  0  0  0  0
  -26.3400   22.7420    8.3770 C   0  0  0  0  0  0  0  0  0  0  0  0
  -26.1360   23.9050    9.1060 C   0  0  0  0  0  0  0  0  0  0  0  0
  -27.0060   24.9840    8.9680 C   0  0  0  0  0  0  0  0  0  0  0  0
  -28.0970   24.9200    8.1120 C   0  0  0  0  0  0  0  0  0  0  0  0
  -28.3290   23.7480    7.3820 C   0  0  0  0  0  0  0  0  0  0  0  0
  -29.5010   23.6460    6.4970 C   0  0  0  0  0  0  0  0  0  0  0  0
  -29.3970   23.7060    5.1540 C   0  0  0  0  0  0  0  0  0  0  0  0
  -30.6510   23.6440    4.3560 C   0  0  0  0  0  0  0  0  0  0  0  0
  -30.6680   23.7090    3.1290 O   0  0  0  0  0  0  0  0  0  0  0  0
  -31.9100   23.5030    5.0960 C   0  0  0  0  0  0  0  0  0  0  0  0
  -33.1450   23.4450    4.4370 C   0  0  0  0  0  0  0  0  0  0  0  0
  -34.3250   23.3070    5.1630 C   0  0  0  0  0  0  0  0  0  0  0  0
  -34.2600   23.2250    6.5510 C   0  0  0  0  0  0  0  0  0  0  0  0
  -33.0390   23.2820    7.2180 C   0  0  0  0  0  0  0  0  0  0  0  0
  -31.8610   23.4250    6.4850 C   0  0  0  0  0  0  0  0  0  0  0  0
  -30.6880   23.4880    7.1930 O   0  0  0  0  0  0  0  0  0  0  0  0
  -35.3880   23.0890    7.3050 O   0  0  0  0  0  0  0  0  0  0  0  0
  -33.2670   23.5210    3.0750 O   0  0  0  0  0  0  0  0  0  0  0  0
  -28.2050   23.8190    4.4590 O   0  0  0  0  0  0  0  0  0  0  0  0
  -26.7940   26.1250    9.6890 O   0  0  0  0  0  0  0  0  0  0  0  0
  -25.0920   24.0380    9.9780 O   0  0  0  0  0  0  0  0  0  0  0  0
  -27.5920   21.7560    6.9340 H   0  0  0  0  0  0  0  0  0  0  0  0
  -25.6690   21.8930    8.4620 H   0  0  0  0  0  0  0  0  0  0  0  0
  -28.7600   25.7770    8.0250 H   0  0  0  0  0  0  0  0  0  0  0  0
  -35.2720   23.2660    4.6340 H   0  0  0  0  0  0  0  0  0  0  0  0
  -33.0100   23.2170    8.3020 H   0  0  0  0  0  0  0  0  0  0  0  0
  -35.3550   23.7280    8.0370 H   0  0  0  0  0  0  0  0  0  0  0  0
  -32.4760   23.0930    2.6730 H   0  0  0  0  0  0  0  0  0  0  0  0
  -28.1080   24.7310    4.1380 H   0  0  0  0  0  0  0  0  0  0  0  0
  -25.8350   26.2990    9.6020 H   0  0  0  0  0  0  0  0  0  0  0  0
  -24.7260   24.9350    9.8850 H   0  0  0  0  0  0  0  0  0  0  0  0
  1  2  1  0  0  0  0
  2 24  1  0  0  0  0
  2  3  2  0  0  0  0
  3 22  1  0  0  0  0
  4  3  1  0  0  0  0
  4 21  1  0  0  0  0
  5  4  2  0  0  0  0
  6  1  2  0  0  0  0
  6  5  1  0  0  0  0
  7 17  1  0  0  0  0
  7  6  1  0  0  0  0
  8  7  2  0  0  0  0
  9 11  1  0  0  0  0
  9  8  1  0  0  0  0
 10  9  2  0  0  0  0
 11 16  1  0  0  0  0
 12 11  2  0  0  0  0
 12 13  1  0  0  0  0
 13 14  2  0  0  0  0
 14 15  1  0  0  0  0
 14 18  1  0  0  0  0
 15 27  1  0  0  0  0
 16 17  1  0  0  0  0
 16 15  2  0  0  0  0
 18 28  1  0  0  0  0
 19 12  1  0  0  0  0
 20  8  1  0  0  0  0
 23  1  1  0  0  0  0
 25  5  1  0  0  0  0
 26 13  1  0  0  0  0
 29 19  1  0  0  0  0
 30 20  1  0  0  0  0
 31 21  1  0  0  0  0
 32 22  1  0  0  0  0
M  END
>  <Pose>
1

>  <Score>
-5.05

$$$$

 OpenBabel10152114563D

 32 34  0  0  0  0  0  0  0  0999 V2000
  -33.2450   26.2420    4.7090 C   0  0  0  0  0  0  0  0  0  0  0  0
  -34.5290   26.7450    4.9420 C   0  0  0  0  0  0  0  0  0  0  0  0
  -35.4090   26.0100    5.7240 C   0  0  0  0  0  0  0  0  0  0  0  0
  -35.0200   24.7840    6.2590 C   0  0  0  0  0  0  0  0  0  0  0  0
  -33.7480   24.2750    6.0330 C   0  0  0  0  0  0  0  0  0  0  0  0
  -32.8410   25.0120    5.2620 C   0  0  0  0  0  0  0  0  0  0  0  0
  -31.4750   24.5080    5.0420 C   0  0  0  0  0  0  0  0  0  0  0  0
  -31.0430   24.1040    3.8300 C   0  0  0  0  0  0  0  0  0  0  0  0
  -29.6610   23.5640    3.7290 C   0  0  0  0  0  0  0  0  0  0  0  0
  -29.1770   23.1530    2.6770 O   0  0  0  0  0  0  0  0  0  0  0  0
  -28.8630   23.5300    4.9600 C   0  0  0  0  0  0  0  0  0  0  0  0
  -27.5540   23.0310    4.9720 C   0  0  0  0  0  0  0  0  0  0  0  0
  -26.8170   23.0130    6.1530 C   0  0  0  0  0  0  0  0  0  0  0  0
  -27.3980   23.5000    7.3200 C   0  0  0  0  0  0  0  0  0  0  0  0
  -28.6990   23.9980    7.3220 C   0  0  0  0  0  0  0  0  0  0  0  0
  -29.4330   24.0090    6.1360 C   0  0  0  0  0  0  0  0  0  0  0  0
  -30.7120   24.4980    6.1980 O   0  0  0  0  0  0  0  0  0  0  0  0
  -26.7170   23.5040    8.5010 O   0  0  0  0  0  0  0  0  0  0  0  0
  -26.9330   22.5400    3.8540 O   0  0  0  0  0  0  0  0  0  0  0  0
  -31.7920   24.1570    2.6670 O   0  0  0  0  0  0  0  0  0  0  0  0
  -35.8950   24.0670    7.0240 O   0  0  0  0  0  0  0  0  0  0  0  0
  -36.6730   26.4510    6.0010 O   0  0  0  0  0  0  0  0  0  0  0  0
  -32.5570   26.8160    4.0890 H   0  0  0  0  0  0  0  0  0  0  0  0
  -34.8150   27.6980    4.5090 H   0  0  0  0  0  0  0  0  0  0  0  0
  -33.4710   23.3160    6.4630 H   0  0  0  0  0  0  0  0  0  0  0  0
  -25.8050   22.6210    6.1420 H   0  0  0  0  0  0  0  0  0  0  0  0
  -29.1350   24.3730    8.2440 H   0  0  0  0  0  0  0  0  0  0  0  0
  -25.9170   24.0490    8.4000 H   0  0  0  0  0  0  0  0  0  0  0  0
  -26.2870   23.2160    3.5420 H   0  0  0  0  0  0  0  0  0  0  0  0
  -31.7250   25.0470    2.2840 H   0  0  0  0  0  0  0  0  0  0  0  0
  -35.9610   24.5680    7.8620 H   0  0  0  0  0  0  0  0  0  0  0  0
  -37.1100   25.7950    6.5710 H   0  0  0  0  0  0  0  0  0  0  0  0
  1  2  2  0  0  0  0
  1  6  1  0  0  0  0
  2  3  1  0  0  0  0
  3 22  1  0  0  0  0
  3  4  2  0  0  0  0
  4 21  1  0  0  0  0
  5  4  1  0  0  0  0
  5 25  1  0  0  0  0
  6  5  2  0  0  0  0
  7  6  1  0  0  0  0
  7 17  1  0  0  0  0
  8  7  2  0  0  0  0
  9  8  1  0  0  0  0
  9 11  1  0  0  0  0
 10  9  2  0  0  0  0
 11 12  2  0  0  0  0
 11 16  1  0  0  0  0
 12 13  1  0  0  0  0
 13 14  2  0  0  0  0
 14 15  1  0  0  0  0
 14 18  1  0  0  0  0
 15 27  1  0  0  0  0
 16 17  1  0  0  0  0
 16 15  2  0  0  0  0
 19 12  1  0  0  0  0
 20  8  1  0  0  0  0
 21 31  1  0  0  0  0
 22 32  1  0  0  0  0
 23  1  1  0  0  0  0
 24  2  1  0  0  0  0
 26 13  1  0  0  0  0
 28 18  1  0  0  0  0
 29 19  1  0  0  0  0
 30 20  1  0  0  0  0
M  END
>  <Pose>
1

>  <Score>
-4.61

$$$$

 OpenBabel10152114563D

 32 34  0  0  0  0  0  0  0  0999 V2000
  -32.7280   29.5640    2.4780 C   0  0  0  0  0  0  0  0  0  0  0  0
  -32.1150   30.6390    1.8260 C   0  0  0  0  0  0  0  0  0  0  0  0
  -31.4180   31.5740    2.5790 C   0  0  0  0  0  0  0  0  0  0  0  0
  -31.3400   31.4470    3.9640 C   0  0  0  0  0  0  0  0  0  0  0  0
  -31.9450   30.3830    4.6200 C   0  0  0  0  0  0  0  0  0  0  0  0
  -32.6370   29.4210    3.8750 C   0  0  0  0  0  0  0  0  0  0  0  0
  -33.2530   28.2650    4.5490 C   0  0  0  0  0  0  0  0  0  0  0  0
  -34.5130   28.2990    5.0280 C   0  0  0  0  0  0  0  0  0  0  0  0
  -35.0190   27.0930    5.7380 C   0  0  0  0  0  0  0  0  0  0  0  0
  -36.1450   27.0270    6.2270 O   0  0  0  0  0  0  0  0  0  0  0  0
  -34.1100   25.9470    5.8440 C   0  0  0  0  0  0  0  0  0  0  0  0
  -34.4890   24.7700    6.5010 C   0  0  0  0  0  0  0  0  0  0  0  0
  -33.6080   23.6950    6.5850 C   0  0  0  0  0  0  0  0  0  0  0  0
  -32.3470   23.8060    6.0060 C   0  0  0  0  0  0  0  0  0  0  0  0
  -31.9580   24.9720    5.3510 C   0  0  0  0  0  0  0  0  0  0  0  0
  -32.8440   26.0470    5.2740 C   0  0  0  0  0  0  0  0  0  0  0  0
  -32.4040   27.1730    4.6290 O   0  0  0  0  0  0  0  0  0  0  0  0
  -31.4500   22.7810    6.0620 O   0  0  0  0  0  0  0  0  0  0  0  0
  -35.7160   24.6050    7.0880 O   0  0  0  0  0  0  0  0  0  0  0  0
  -35.3750   29.3760    4.9070 O   0  0  0  0  0  0  0  0  0  0  0  0
  -30.6530   32.3740    4.6940 O   0  0  0  0  0  0  0  0  0  0  0  0
  -30.7860   32.6400    2.0020 O   0  0  0  0  0  0  0  0  0  0  0  0
  -33.2820   28.8340    1.8880 H   0  0  0  0  0  0  0  0  0  0  0  0
  -32.1960   30.7250    0.7470 H   0  0  0  0  0  0  0  0  0  0  0  0
  -31.8660   30.3080    5.7020 H   0  0  0  0  0  0  0  0  0  0  0  0
  -33.9200   22.7910    7.1000 H   0  0  0  0  0  0  0  0  0  0  0  0
  -30.9690   25.0390    4.9070 H   0  0  0  0  0  0  0  0  0  0  0  0
  -30.6490   23.0380    5.5750 H   0  0  0  0  0  0  0  0  0  0  0  0
  -35.6280   24.8230    8.0450 H   0  0  0  0  0  0  0  0  0  0  0  0
  -35.3430   29.9030    5.7230 H   0  0  0  0  0  0  0  0  0  0  0  0
  -29.7190   32.2620    4.4240 H   0  0  0  0  0  0  0  0  0  0  0  0
  -29.9070   32.7320    2.4080 H   0  0  0  0  0  0  0  0  0  0  0  0
  1  6  1  0  0  0  0
  2  1  2  0  0  0  0
  2  3  1  0  0  0  0
  3  4  2  0  0  0  0
  4  5  1  0  0  0  0
  4 21  1  0  0  0  0
  5 25  1  0  0  0  0
  6  7  1  0  0  0  0
  6  5  2  0  0  0  0
  7 17  1  0  0  0  0
  7  8  2  0  0  0  0
  8  9  1  0  0  0  0
  9 11  1  0  0  0  0
  9 10  2  0  0  0  0
 11 12  1  0  0  0  0
 12 13  2  0  0  0  0
 12 19  1  0  0  0  0
 13 26  1  0  0  0  0
 14 18  1  0  0  0  0
 14 13  1  0  0  0  0
 15 14  2  0  0  0  0
 16 15  1  0  0  0  0
 16 11  2  0  0  0  0
 17 16  1  0  0  0  0
 19 29  1  0  0  0  0
 20  8  1  0  0  0  0
 20 30  1  0  0  0  0
 22 32  1  0  0  0  0
 22  3  1  0  0  0  0
 23  1  1  0  0  0  0
 24  2  1  0  0  0  0
 27 15  1  0  0  0  0
 28 18  1  0  0  0  0
 31 21  1  0  0  0  0
M  END
>  <Pose>
2

>  <Score>
-4.22

$$$$

 OpenBabel10152114563D

 32 34  0  0  0  0  0  0  0  0999 V2000
  -32.5220   30.3020    4.5900 C   0  0  0  0  0  0  0  0  0  0  0  0
  -32.0350   31.4380    3.9360 C   0  0  0  0  0  0  0  0  0  0  0  0
  -31.7380   31.3600    2.5810 C   0  0  0  0  0  0  0  0  0  0  0  0
  -31.9130   30.1630    1.8900 C   0  0  0  0  0  0  0  0  0  0  0  0
  -32.3970   29.0300    2.5310 C   0  0  0  0  0  0  0  0  0  0  0  0
  -32.7190   29.0960    3.8920 C   0  0  0  0  0  0  0  0  0  0  0  0
  -33.2680   27.9150    4.5810 C   0  0  0  0  0  0  0  0  0  0  0  0
  -34.5210   27.8910    5.0780 C   0  0  0  0  0  0  0  0  0  0  0  0
  -34.9570   26.6660    5.8020 C   0  0  0  0  0  0  0  0  0  0  0  0
  -36.0710   26.5480    6.3080 O   0  0  0  0  0  0  0  0  0  0  0  0
  -33.9910   25.5660    5.9020 C   0  0  0  0  0  0  0  0  0  0  0  0
  -34.3030   24.3760    6.5700 C   0  0  0  0  0  0  0  0  0  0  0  0
  -33.3690   23.3460    6.6480 C   0  0  0  0  0  0  0  0  0  0  0  0
  -32.1230   23.5150    6.0500 C   0  0  0  0  0  0  0  0  0  0  0  0
  -31.8010   24.6950    5.3830 C   0  0  0  0  0  0  0  0  0  0  0  0
  -32.7400   25.7240    5.3130 C   0  0  0  0  0  0  0  0  0  0  0  0
  -32.3650   26.8670    4.6550 O   0  0  0  0  0  0  0  0  0  0  0  0
  -31.1760   22.5360    6.0990 O   0  0  0  0  0  0  0  0  0  0  0  0
  -35.5110   24.1550    7.1760 O   0  0  0  0  0  0  0  0  0  0  0  0
  -35.4360   28.9230    4.9630 O   0  0  0  0  0  0  0  0  0  0  0  0
  -31.6160   30.0970    0.5590 O   0  0  0  0  0  0  0  0  0  0  0  0
  -31.2710   32.4360    1.8810 O   0  0  0  0  0  0  0  0  0  0  0  0
  -32.7480   30.3620    5.6540 H   0  0  0  0  0  0  0  0  0  0  0  0
  -31.8960   32.3580    4.4950 H   0  0  0  0  0  0  0  0  0  0  0  0
  -32.5250   28.1100    1.9660 H   0  0  0  0  0  0  0  0  0  0  0  0
  -33.6290   22.4320    7.1720 H   0  0  0  0  0  0  0  0  0  0  0  0
  -30.8230   24.8080    4.9240 H   0  0  0  0  0  0  0  0  0  0  0  0
  -30.3240   22.9090    5.8170 H   0  0  0  0  0  0  0  0  0  0  0  0
  -35.4870   24.5720    8.0680 H   0  0  0  0  0  0  0  0  0  0  0  0
  -35.2560   29.5870    5.6490 H   0  0  0  0  0  0  0  0  0  0  0  0
  -30.6980   30.4310    0.4930 H   0  0  0  0  0  0  0  0  0  0  0  0
  -30.3260   32.5490    2.0850 H   0  0  0  0  0  0  0  0  0  0  0  0
  1 23  1  0  0  0  0
  2 24  1  0  0  0  0
  2  1  1  0  0  0  0
  3  2  2  0  0  0  0
  4  5  2  0  0  0  0
  4  3  1  0  0  0  0
  5  6  1  0  0  0  0
  6  7  1  0  0  0  0
  6  1  2  0  0  0  0
  7 17  1  0  0  0  0
  7  8  2  0  0  0  0
  8  9  1  0  0  0  0
  9 11  1  0  0  0  0
  9 10  2  0  0  0  0
 11 12  1  0  0  0  0
 12 13  2  0  0  0  0
 12 19  1  0  0  0  0
 13 26  1  0  0  0  0
 14 18  1  0  0  0  0
 14 13  1  0  0  0  0
 15 14  2  0  0  0  0
 16 15  1  0  0  0  0
 16 11  2  0  0  0  0
 17 16  1  0  0  0  0
 19 29  1  0  0  0  0
 20  8  1  0  0  0  0
 20 30  1  0  0  0  0
 21  4  1  0  0  0  0
 22 32  1  0  0  0  0
 22  3  1  0  0  0  0
 25  5  1  0  0  0  0
 27 15  1  0  0  0  0
 28 18  1  0  0  0  0
 31 21  1  0  0  0  0
M  END
>  <Pose>
1

>  <Score>
-4.06

$$$$
