
 OpenBabel10152114563D

 32 34  0  0  0  0  0  0  0  0999 V2000
  -40.5560   19.2120    9.9360 C   0  0  0  0  0  0  0  0  0  0  0  0
  -39.9260   20.2120    9.1890 C   0  0  0  0  0  0  0  0  0  0  0  0
  -38.9030   19.8610    8.3190 C   0  0  0  0  0  0  0  0  0  0  0  0
  -38.5030   18.5310    8.2030 C   0  0  0  0  0  0  0  0  0  0  0  0
  -39.1220   17.5300    8.9410 C   0  0  0  0  0  0  0  0  0  0  0  0
  -40.1680   17.8650    9.8090 C   0  0  0  0  0  0  0  0  0  0  0  0
  -40.8620   16.8130   10.5710 C   0  0  0  0  0  0  0  0  0  0  0  0
  -42.1070   16.4000   10.2590 C   0  0  0  0  0  0  0  0  0  0  0  0
  -42.7350   15.3680   11.1280 C   0  0  0  0  0  0  0  0  0  0  0  0
  -43.8710   14.9370   10.9420 O   0  0  0  0  0  0  0  0  0  0  0  0
  -41.9390   14.8620   12.2510 C   0  0  0  0  0  0  0  0  0  0  0  0
  -42.4440   13.8970   13.1310 C   0  0  0  0  0  0  0  0  0  0  0  0
  -41.6660   13.4320   14.1880 C   0  0  0  0  0  0  0  0  0  0  0  0
  -40.3800   13.9370   14.3560 C   0  0  0  0  0  0  0  0  0  0  0  0
  -39.8670   14.8970   13.4880 C   0  0  0  0  0  0  0  0  0  0  0  0
  -40.6530   15.3630   12.4330 C   0  0  0  0  0  0  0  0  0  0  0  0
  -40.1020   16.3170   11.6180 O   0  0  0  0  0  0  0  0  0  0  0  0
  -39.5800   13.5110   15.3750 O   0  0  0  0  0  0  0  0  0  0  0  0
  -43.7010   13.3660   13.0140 O   0  0  0  0  0  0  0  0  0  0  0  0
  -42.8470   16.8660    9.1860 O   0  0  0  0  0  0  0  0  0  0  0  0
  -37.4930   18.1970    7.3470 O   0  0  0  0  0  0  0  0  0  0  0  0
  -38.2550   20.7880    7.5520 O   0  0  0  0  0  0  0  0  0  0  0  0
  -41.3540   19.4890   10.6230 H   0  0  0  0  0  0  0  0  0  0  0  0
  -40.2470   21.2430    9.3010 H   0  0  0  0  0  0  0  0  0  0  0  0
  -38.7900   16.5010    8.8290 H   0  0  0  0  0  0  0  0  0  0  0  0
  -42.0760   12.6850   14.8600 H   0  0  0  0  0  0  0  0  0  0  0  0
  -38.8610   15.2790   13.6360 H   0  0  0  0  0  0  0  0  0  0  0  0
  -38.6910   13.3340   15.0230 H   0  0  0  0  0  0  0  0  0  0  0  0
  -43.9260   13.3230   12.0560 H   0  0  0  0  0  0  0  0  0  0  0  0
  -43.2330   17.7280    9.4140 H   0  0  0  0  0  0  0  0  0  0  0  0
  -36.6750   18.3150    7.8700 H   0  0  0  0  0  0  0  0  0  0  0  0
  -38.6810   21.6520    7.6890 H   0  0  0  0  0  0  0  0  0  0  0  0
  1 23  1  0  0  0  0
  2 24  1  0  0  0  0
  2  1  2  0  0  0  0
  3  2  1  0  0  0  0
  4  3  2  0  0  0  0
  4  5  1  0  0  0  0
  5  6  2  0  0  0  0
  6  1  1  0  0  0  0
  6  7  1  0  0  0  0
  7 17  1  0  0  0  0
  8  7  2  0  0  0  0
  8  9  1  0  0  0  0
  9 11  1  0  0  0  0
 10  9  2  0  0  0  0
 11 16  2  0  0  0  0
 11 12  1  0  0  0  0
 12 13  2  0  0  0  0
 13 14  1  0  0  0  0
 13 26  1  0  0  0  0
 14 18  1  0  0  0  0
 15 27  1  0  0  0  0
 15 14  2  0  0  0  0
 16 15  1  0  0  0  0
 17 16  1  0  0  0  0
 19 12  1  0  0  0  0
 20 30  1  0  0  0  0
 20  8  1  0  0  0  0
 21 31  1  0  0  0  0
 21  4  1  0  0  0  0
 22 32  1  0  0  0  0
 22  3  1  0  0  0  0
 25  5  1  0  0  0  0
 28 18  1  0  0  0  0
 29 19  1  0  0  0  0
M  END
>  <Pose>
1

>  <Score>
-4.90

$$$$

 OpenBabel10152114563D

 32 34  0  0  0  0  0  0  0  0999 V2000
  -38.7630   17.5260    9.3010 C   0  0  0  0  0  0  0  0  0  0  0  0
  -38.0790   18.5540    8.6440 C   0  0  0  0  0  0  0  0  0  0  0  0
  -38.6580   19.8140    8.5770 C   0  0  0  0  0  0  0  0  0  0  0  0
  -39.9070   20.0460    9.1490 C   0  0  0  0  0  0  0  0  0  0  0  0
  -40.5940   19.0320    9.8040 C   0  0  0  0  0  0  0  0  0  0  0  0
  -40.0170   17.7600    9.8960 C   0  0  0  0  0  0  0  0  0  0  0  0
  -40.7120   16.6820   10.6190 C   0  0  0  0  0  0  0  0  0  0  0  0
  -41.8990   16.1890   10.2090 C   0  0  0  0  0  0  0  0  0  0  0  0
  -42.5390   15.1360   11.0420 C   0  0  0  0  0  0  0  0  0  0  0  0
  -43.6270   14.6340   10.7680 O   0  0  0  0  0  0  0  0  0  0  0  0
  -41.8160   14.6980   12.2420 C   0  0  0  0  0  0  0  0  0  0  0  0
  -42.3390   13.7200   13.0960 C   0  0  0  0  0  0  0  0  0  0  0  0
  -41.6310   13.3200   14.2260 C   0  0  0  0  0  0  0  0  0  0  0  0
  -40.3970   13.9040   14.4930 C   0  0  0  0  0  0  0  0  0  0  0  0
  -39.8670   14.8790   13.6520 C   0  0  0  0  0  0  0  0  0  0  0  0
  -40.5830   15.2780   12.5240 C   0  0  0  0  0  0  0  0  0  0  0  0
  -40.0200   16.2500   11.7380 O   0  0  0  0  0  0  0  0  0  0  0  0
  -39.6660   13.5450   15.5870 O   0  0  0  0  0  0  0  0  0  0  0  0
  -43.5480   13.1110   12.8820 O   0  0  0  0  0  0  0  0  0  0  0  0
  -42.5680   16.5910    9.0660 O   0  0  0  0  0  0  0  0  0  0  0  0
  -40.4690   21.2880    9.0750 O   0  0  0  0  0  0  0  0  0  0  0  0
  -38.0370   20.8640    7.9610 O   0  0  0  0  0  0  0  0  0  0  0  0
  -38.3110   16.5360    9.3460 H   0  0  0  0  0  0  0  0  0  0  0  0
  -37.1110   18.3510    8.1970 H   0  0  0  0  0  0  0  0  0  0  0  0
  -41.5670   19.2420   10.2410 H   0  0  0  0  0  0  0  0  0  0  0  0
  -42.0540   12.5610   14.8770 H   0  0  0  0  0  0  0  0  0  0  0  0
  -38.9010   15.3240   13.8790 H   0  0  0  0  0  0  0  0  0  0  0  0
  -38.7250   13.7060   15.4020 H   0  0  0  0  0  0  0  0  0  0  0  0
  -43.9160   13.4540   12.0350 H   0  0  0  0  0  0  0  0  0  0  0  0
  -42.5680   17.5620    9.0200 H   0  0  0  0  0  0  0  0  0  0  0  0
  -39.8760   21.8610    9.6020 H   0  0  0  0  0  0  0  0  0  0  0  0
  -38.5000   21.6830    8.2090 H   0  0  0  0  0  0  0  0  0  0  0  0
  1 23  1  0  0  0  0
  1  6  1  0  0  0  0
  2  1  2  0  0  0  0
  3  2  1  0  0  0  0
  3  4  2  0  0  0  0
  4  5  1  0  0  0  0
  5  6  2  0  0  0  0
  5 25  1  0  0  0  0
  6  7  1  0  0  0  0
  7 17  1  0  0  0  0
  8  7  2  0  0  0  0
  8  9  1  0  0  0  0
  9 11  1  0  0  0  0
 10  9  2  0  0  0  0
 11 16  2  0  0  0  0
 11 12  1  0  0  0  0
 12 13  2  0  0  0  0
 13 14  1  0  0  0  0
 13 26  1  0  0  0  0
 14 18  1  0  0  0  0
 15 27  1  0  0  0  0
 15 14  2  0  0  0  0
 16 15  1  0  0  0  0
 17 16  1  0  0  0  0
 19 12  1  0  0  0  0
 20  8  1  0  0  0  0
 21  4  1  0  0  0  0
 21 31  1  0  0  0  0
 22 32  1  0  0  0  0
 22  3  1  0  0  0  0
 24  2  1  0  0  0  0
 28 18  1  0  0  0  0
 29 19  1  0  0  0  0
 30 20  1  0  0  0  0
M  END
>  <Pose>
1

>  <Score>
-4.68

$$$$

 OpenBabel10152114563D

 32 34  0  0  0  0  0  0  0  0999 V2000
  -37.6750   19.7500    7.2290 C   0  0  0  0  0  0  0  0  0  0  0  0
  -36.5150   20.4600    6.9020 C   0  0  0  0  0  0  0  0  0  0  0  0
  -35.8560   21.1710    7.8960 C   0  0  0  0  0  0  0  0  0  0  0  0
  -36.3510   21.1830    9.1980 C   0  0  0  0  0  0  0  0  0  0  0  0
  -37.5020   20.4810    9.5340 C   0  0  0  0  0  0  0  0  0  0  0  0
  -38.1690   19.7450    8.5480 C   0  0  0  0  0  0  0  0  0  0  0  0
  -39.3690   18.9640    8.8920 C   0  0  0  0  0  0  0  0  0  0  0  0
  -40.5770   19.2270    8.3540 C   0  0  0  0  0  0  0  0  0  0  0  0
  -41.7340   18.4100    8.8100 C   0  0  0  0  0  0  0  0  0  0  0  0
  -42.8790   18.5800    8.3980 O   0  0  0  0  0  0  0  0  0  0  0  0
  -41.4650   17.3610    9.8010 C   0  0  0  0  0  0  0  0  0  0  0  0
  -42.4870   16.5450   10.2990 C   0  0  0  0  0  0  0  0  0  0  0  0
  -42.2040   15.5540   11.2370 C   0  0  0  0  0  0  0  0  0  0  0  0
  -40.8920   15.3860   11.6680 C   0  0  0  0  0  0  0  0  0  0  0  0
  -39.8660   16.1920   11.1800 C   0  0  0  0  0  0  0  0  0  0  0  0
  -40.1570   17.1850   10.2450 C   0  0  0  0  0  0  0  0  0  0  0  0
  -39.1120   17.9570    9.8080 O   0  0  0  0  0  0  0  0  0  0  0  0
  -40.5650   14.4290   12.5830 O   0  0  0  0  0  0  0  0  0  0  0  0
  -43.7950   16.6660    9.9110 O   0  0  0  0  0  0  0  0  0  0  0  0
  -40.8230   20.2040    7.4050 O   0  0  0  0  0  0  0  0  0  0  0  0
  -35.6960   21.8870   10.1680 O   0  0  0  0  0  0  0  0  0  0  0  0
  -34.7120   21.8740    7.6440 O   0  0  0  0  0  0  0  0  0  0  0  0
  -38.1960   19.1990    6.4470 H   0  0  0  0  0  0  0  0  0  0  0  0
  -36.1520   20.4450    5.8790 H   0  0  0  0  0  0  0  0  0  0  0  0
  -37.8640   20.5070   10.5580 H   0  0  0  0  0  0  0  0  0  0  0  0
  -43.0110   14.9330   11.6120 H   0  0  0  0  0  0  0  0  0  0  0  0
  -38.8480   16.0450   11.5300 H   0  0  0  0  0  0  0  0  0  0  0  0
  -39.6740   14.0940   12.3830 H   0  0  0  0  0  0  0  0  0  0  0  0
  -44.2120   17.3710   10.4580 H   0  0  0  0  0  0  0  0  0  0  0  0
  -40.1650   20.9130    7.4980 H   0  0  0  0  0  0  0  0  0  0  0  0
  -36.2110   22.7130   10.2660 H   0  0  0  0  0  0  0  0  0  0  0  0
  -34.8120   22.7670    8.0180 H   0  0  0  0  0  0  0  0  0  0  0  0
  1  6  1  0  0  0  0
  2  1  2  0  0  0  0
  2  3  1  0  0  0  0
  3  4  2  0  0  0  0
  4  5  1  0  0  0  0
  4 21  1  0  0  0  0
  5 25  1  0  0  0  0
  6  7  1  0  0  0  0
  6  5  2  0  0  0  0
  7 17  1  0  0  0  0
  8  9  1  0  0  0  0
  8  7  2  0  0  0  0
  9 11  1  0  0  0  0
 10  9  2  0  0  0  0
 11 16  2  0  0  0  0
 11 12  1  0  0  0  0
 12 13  2  0  0  0  0
 13 26  1  0  0  0  0
 13 14  1  0  0  0  0
 14 18  1  0  0  0  0
 15 27  1  0  0  0  0
 15 14  2  0  0  0  0
 16 15  1  0  0  0  0
 17 16  1  0  0  0  0
 19 12  1  0  0  0  0
 19 29  1  0  0  0  0
 20 30  1  0  0  0  0
 20  8  1  0  0  0  0
 21 31  1  0  0  0  0
 22  3  1  0  0  0  0
 22 32  1  0  0  0  0
 23  1  1  0  0  0  0
 24  2  1  0  0  0  0
 28 18  1  0  0  0  0
M  END
>  <Pose>
1

>  <Score>
-4.48

$$$$

 OpenBabel10152114563D

 32 34  0  0  0  0  0  0  0  0999 V2000
  -41.5930   17.5640    9.5290 C   0  0  0  0  0  0  0  0  0  0  0  0
  -42.4550   16.7270   10.2440 C   0  0  0  0  0  0  0  0  0  0  0  0
  -41.9200   15.8360   11.1650 C   0  0  0  0  0  0  0  0  0  0  0  0
  -40.5420   15.7720   11.3630 C   0  0  0  0  0  0  0  0  0  0  0  0
  -39.6780   16.5990   10.6580 C   0  0  0  0  0  0  0  0  0  0  0  0
  -40.2020   17.5160    9.7390 C   0  0  0  0  0  0  0  0  0  0  0  0
  -39.3050   18.4280    9.0090 C   0  0  0  0  0  0  0  0  0  0  0  0
  -39.3500   18.5620    7.6680 C   0  0  0  0  0  0  0  0  0  0  0  0
  -38.3640   19.4720    7.0270 C   0  0  0  0  0  0  0  0  0  0  0  0
  -38.3080   19.6510    5.8120 O   0  0  0  0  0  0  0  0  0  0  0  0
  -37.4250   20.1730    7.9100 C   0  0  0  0  0  0  0  0  0  0  0  0
  -36.4530   21.0440    7.4030 C   0  0  0  0  0  0  0  0  0  0  0  0
  -35.5760   21.7000    8.2630 C   0  0  0  0  0  0  0  0  0  0  0  0
  -35.6820   21.4800    9.6340 C   0  0  0  0  0  0  0  0  0  0  0  0
  -36.6440   20.6150   10.1500 C   0  0  0  0  0  0  0  0  0  0  0  0
  -37.5160   19.9580    9.2820 C   0  0  0  0  0  0  0  0  0  0  0  0
  -38.4350   19.1100    9.8440 O   0  0  0  0  0  0  0  0  0  0  0  0
  -34.8470   22.0990   10.5160 O   0  0  0  0  0  0  0  0  0  0  0  0
  -36.3040   21.2980    6.0650 O   0  0  0  0  0  0  0  0  0  0  0  0
  -40.2510   17.9140    6.8410 O   0  0  0  0  0  0  0  0  0  0  0  0
  -40.0260   14.8900   12.2690 O   0  0  0  0  0  0  0  0  0  0  0  0
  -42.7080   15.0000   11.9040 O   0  0  0  0  0  0  0  0  0  0  0  0
  -42.0130   18.2580    8.8020 H   0  0  0  0  0  0  0  0  0  0  0  0
  -43.5240   16.7860   10.0680 H   0  0  0  0  0  0  0  0  0  0  0  0
  -38.6080   16.5290   10.8340 H   0  0  0  0  0  0  0  0  0  0  0  0
  -34.8290   22.3700    7.8510 H   0  0  0  0  0  0  0  0  0  0  0  0
  -36.7090   20.4560   11.2230 H   0  0  0  0  0  0  0  0  0  0  0  0
  -34.8970   23.0600   10.3740 H   0  0  0  0  0  0  0  0  0  0  0  0
  -36.5180   22.2480    5.9090 H   0  0  0  0  0  0  0  0  0  0  0  0
  -40.9970   18.5070    6.6540 H   0  0  0  0  0  0  0  0  0  0  0  0
  -39.2460   14.5040   11.8230 H   0  0  0  0  0  0  0  0  0  0  0  0
  -42.3350   14.9400   12.8010 H   0  0  0  0  0  0  0  0  0  0  0  0
  1  6  2  0  0  0  0
  1  2  1  0  0  0  0
  2  3  2  0  0  0  0
  3  4  1  0  0  0  0
  3 22  1  0  0  0  0
  4 21  1  0  0  0  0
  5 25  1  0  0  0  0
  5  4  2  0  0  0  0
  6  5  1  0  0  0  0
  7  6  1  0  0  0  0
  7 17  1  0  0  0  0
  8  7  2  0  0  0  0
  9  8  1  0  0  0  0
  9 11  1  0  0  0  0
 10  9  2  0  0  0  0
 11 16  1  0  0  0  0
 12 11  2  0  0  0  0
 12 13  1  0  0  0  0
 13 14  2  0  0  0  0
 14 15  1  0  0  0  0
 14 18  1  0  0  0  0
 15 27  1  0  0  0  0
 16 17  1  0  0  0  0
 16 15  2  0  0  0  0
 19 12  1  0  0  0  0
 20  8  1  0  0  0  0
 22 32  1  0  0  0  0
 23  1  1  0  0  0  0
 24  2  1  0  0  0  0
 26 13  1  0  0  0  0
 28 18  1  0  0  0  0
 29 19  1  0  0  0  0
 30 20  1  0  0  0  0
 31 21  1  0  0  0  0
M  END
>  <Pose>
1

>  <Score>
-4.31

$$$$

 OpenBabel10152114563D

 32 34  0  0  0  0  0  0  0  0999 V2000
  -40.7040   18.0500    7.8100 C   0  0  0  0  0  0  0  0  0  0  0  0
  -40.5210   19.0920    6.8940 C   0  0  0  0  0  0  0  0  0  0  0  0
  -40.9150   20.3760    7.2470 C   0  0  0  0  0  0  0  0  0  0  0  0
  -41.4940   20.6180    8.4910 C   0  0  0  0  0  0  0  0  0  0  0  0
  -41.6790   19.5900    9.4070 C   0  0  0  0  0  0  0  0  0  0  0  0
  -41.2710   18.2930    9.0750 C   0  0  0  0  0  0  0  0  0  0  0  0
  -41.4240   17.1970   10.0470 C   0  0  0  0  0  0  0  0  0  0  0  0
  -40.3740   16.6670   10.7060 C   0  0  0  0  0  0  0  0  0  0  0  0
  -40.6350   15.5280   11.6270 C   0  0  0  0  0  0  0  0  0  0  0  0
  -39.7470   14.9630   12.2610 O   0  0  0  0  0  0  0  0  0  0  0  0
  -42.0250   15.0800   11.7630 C   0  0  0  0  0  0  0  0  0  0  0  0
  -42.3720   14.0110   12.5970 C   0  0  0  0  0  0  0  0  0  0  0  0
  -43.7000   13.6070   12.7110 C   0  0  0  0  0  0  0  0  0  0  0  0
  -44.6770   14.2830   11.9850 C   0  0  0  0  0  0  0  0  0  0  0  0
  -44.3440   15.3480   11.1510 C   0  0  0  0  0  0  0  0  0  0  0  0
  -43.0110   15.7440   11.0390 C   0  0  0  0  0  0  0  0  0  0  0  0
  -42.7400   16.7890   10.1940 O   0  0  0  0  0  0  0  0  0  0  0  0
  -45.9900   13.9250   12.0630 O   0  0  0  0  0  0  0  0  0  0  0  0
  -41.4530   13.3110   13.3330 O   0  0  0  0  0  0  0  0  0  0  0  0
  -39.0660   17.1070   10.5910 O   0  0  0  0  0  0  0  0  0  0  0  0
  -41.8800   21.8840    8.8260 O   0  0  0  0  0  0  0  0  0  0  0  0
  -40.7530   21.4390    6.4030 O   0  0  0  0  0  0  0  0  0  0  0  0
  -40.4010   17.0420    7.5300 H   0  0  0  0  0  0  0  0  0  0  0  0
  -40.0770   18.8800    5.9270 H   0  0  0  0  0  0  0  0  0  0  0  0
  -42.1320   19.8090   10.3700 H   0  0  0  0  0  0  0  0  0  0  0  0
  -43.9480   12.7750   13.3620 H   0  0  0  0  0  0  0  0  0  0  0  0
  -45.1220   15.8620   10.5920 H   0  0  0  0  0  0  0  0  0  0  0  0
  -46.2250   13.7950   12.9980 H   0  0  0  0  0  0  0  0  0  0  0  0
  -40.5680   13.4400   12.9200 H   0  0  0  0  0  0  0  0  0  0  0  0
  -38.8860   17.7600   11.2870 H   0  0  0  0  0  0  0  0  0  0  0  0
  -41.0480   22.3460    9.0520 H   0  0  0  0  0  0  0  0  0  0  0  0
  -40.4400   22.1990    6.9240 H   0  0  0  0  0  0  0  0  0  0  0  0
  1  6  1  0  0  0  0
  2  3  1  0  0  0  0
  2  1  2  0  0  0  0
  3  4  2  0  0  0  0
  4 21  1  0  0  0  0
  4  5  1  0  0  0  0
  5 25  1  0  0  0  0
  6  5  2  0  0  0  0
  6  7  1  0  0  0  0
  7 17  1  0  0  0  0
  7  8  2  0  0  0  0
  8  9  1  0  0  0  0
  9 11  1  0  0  0  0
  9 10  2  0  0  0  0
 11 12  1  0  0  0  0
 12 13  2  0  0  0  0
 12 19  1  0  0  0  0
 13 26  1  0  0  0  0
 14 18  1  0  0  0  0
 14 13  1  0  0  0  0
 15 14  2  0  0  0  0
 16 15  1  0  0  0  0
 16 11  2  0  0  0  0
 17 16  1  0  0  0  0
 18 28  1  0  0  0  0
 20  8  1  0  0  0  0
 20 30  1  0  0  0  0
 21 31  1  0  0  0  0
 22 32  1  0  0  0  0
 22  3  1  0  0  0  0
 23  1  1  0  0  0  0
 24  2  1  0  0  0  0
 27 15  1  0  0  0  0
 29 19  1  0  0  0  0
M  END
>  <Pose>
1

>  <Score>
-4.13

$$$$
