
 OpenBabel10152114563D

 32 34  0  0  0  0  0  0  0  0999 V2000
  -26.6240  -14.4740   21.2090 C   0  0  0  0  0  0  0  0  0  0  0  0
  -25.5630  -15.3760   21.0870 C   0  0  0  0  0  0  0  0  0  0  0  0
  -25.7610  -16.5610   20.3910 C   0  0  0  0  0  0  0  0  0  0  0  0
  -27.0040  -16.8490   19.8320 C   0  0  0  0  0  0  0  0  0  0  0  0
  -28.0640  -15.9600   19.9470 C   0  0  0  0  0  0  0  0  0  0  0  0
  -27.8770  -14.7520   20.6290 C   0  0  0  0  0  0  0  0  0  0  0  0
  -28.9780  -13.7790   20.7300 C   0  0  0  0  0  0  0  0  0  0  0  0
  -29.1340  -12.7740   19.8430 C   0  0  0  0  0  0  0  0  0  0  0  0
  -30.2500  -11.8170   20.0680 C   0  0  0  0  0  0  0  0  0  0  0  0
  -30.4680  -10.8580   19.3310 O   0  0  0  0  0  0  0  0  0  0  0  0
  -31.1120  -12.0520   21.2320 C   0  0  0  0  0  0  0  0  0  0  0  0
  -32.1830  -11.2030   21.5340 C   0  0  0  0  0  0  0  0  0  0  0  0
  -32.9880  -11.4510   22.6430 C   0  0  0  0  0  0  0  0  0  0  0  0
  -32.7140  -12.5550   23.4440 C   0  0  0  0  0  0  0  0  0  0  0  0
  -31.6510  -13.4070   23.1550 C   0  0  0  0  0  0  0  0  0  0  0  0
  -30.8460  -13.1500   22.0440 C   0  0  0  0  0  0  0  0  0  0  0  0
  -29.8070  -14.0140   21.8140 O   0  0  0  0  0  0  0  0  0  0  0  0
  -33.4740  -12.8390   24.5400 O   0  0  0  0  0  0  0  0  0  0  0  0
  -32.4980  -10.1030   20.7810 O   0  0  0  0  0  0  0  0  0  0  0  0
  -28.3300  -12.5680   18.7350 O   0  0  0  0  0  0  0  0  0  0  0  0
  -27.1890  -18.0190   19.1520 O   0  0  0  0  0  0  0  0  0  0  0  0
  -24.7620  -17.4790   20.2260 O   0  0  0  0  0  0  0  0  0  0  0  0
  -26.4700  -13.5470   21.7610 H   0  0  0  0  0  0  0  0  0  0  0  0
  -24.6050  -15.1370   21.5380 H   0  0  0  0  0  0  0  0  0  0  0  0
  -29.0230  -16.2100   19.4990 H   0  0  0  0  0  0  0  0  0  0  0  0
  -33.8120  -10.7790   22.8610 H   0  0  0  0  0  0  0  0  0  0  0  0
  -31.4530  -14.2630   23.7930 H   0  0  0  0  0  0  0  0  0  0  0  0
  -32.9180  -13.2900   25.1990 H   0  0  0  0  0  0  0  0  0  0  0  0
  -32.6120   -9.3370   21.3910 H   0  0  0  0  0  0  0  0  0  0  0  0
  -27.7430  -11.8130   18.9030 H   0  0  0  0  0  0  0  0  0  0  0  0
  -26.8530  -17.8380   18.2510 H   0  0  0  0  0  0  0  0  0  0  0  0
  -24.5900  -17.5780   19.2740 H   0  0  0  0  0  0  0  0  0  0  0  0
  1 23  1  0  0  0  0
  2  1  1  0  0  0  0
  2 24  1  0  0  0  0
  3  2  2  0  0  0  0
  4  5  2  0  0  0  0
  4  3  1  0  0  0  0
  5  6  1  0  0  0  0
  6  7  1  0  0  0  0
  6  1  2  0  0  0  0
  7 17  1  0  0  0  0
  8  9  1  0  0  0  0
  8  7  2  0  0  0  0
  9 11  1  0  0  0  0
 10  9  2  0  0  0  0
 11 12  2  0  0  0  0
 11 16  1  0  0  0  0
 12 13  1  0  0  0  0
 13 26  1  0  0  0  0
 13 14  2  0  0  0  0
 14 18  1  0  0  0  0
 15 14  1  0  0  0  0
 15 27  1  0  0  0  0
 16 15  2  0  0  0  0
 17 16  1  0  0  0  0
 18 28  1  0  0  0  0
 19 29  1  0  0  0  0
 19 12  1  0  0  0  0
 20 30  1  0  0  0  0
 20  8  1  0  0  0  0
 21  4  1  0  0  0  0
 22  3  1  0  0  0  0
 25  5  1  0  0  0  0
 31 21  1  0  0  0  0
 32 22  1  0  0  0  0
M  END
>  <Pose>
4

>  <Score>
-4.17

$$$$

 OpenBabel10152114563D

 32 34  0  0  0  0  0  0  0  0999 V2000
  -27.2430  -14.0470   21.5050 C   0  0  0  0  0  0  0  0  0  0  0  0
  -26.1260  -14.8590   21.2840 C   0  0  0  0  0  0  0  0  0  0  0  0
  -26.2390  -15.9410   20.4220 C   0  0  0  0  0  0  0  0  0  0  0  0
  -27.4520  -16.2180   19.7950 C   0  0  0  0  0  0  0  0  0  0  0  0
  -28.5670  -15.4180   20.0070 C   0  0  0  0  0  0  0  0  0  0  0  0
  -28.4650  -14.3110   20.8590 C   0  0  0  0  0  0  0  0  0  0  0  0
  -29.6260  -13.4290   21.0680 C   0  0  0  0  0  0  0  0  0  0  0  0
  -30.2000  -12.7450   20.0580 C   0  0  0  0  0  0  0  0  0  0  0  0
  -31.3350  -11.8410   20.3880 C   0  0  0  0  0  0  0  0  0  0  0  0
  -31.9160  -11.1600   19.5460 O   0  0  0  0  0  0  0  0  0  0  0  0
  -31.7560  -11.7780   21.7920 C   0  0  0  0  0  0  0  0  0  0  0  0
  -32.8080  -10.9510   22.2060 C   0  0  0  0  0  0  0  0  0  0  0  0
  -33.1890  -10.9130   23.5440 C   0  0  0  0  0  0  0  0  0  0  0  0
  -32.5130  -11.7090   24.4640 C   0  0  0  0  0  0  0  0  0  0  0  0
  -31.4660  -12.5350   24.0650 C   0  0  0  0  0  0  0  0  0  0  0  0
  -31.0850  -12.5660   22.7230 C   0  0  0  0  0  0  0  0  0  0  0  0
  -30.0400  -13.3870   22.3890 O   0  0  0  0  0  0  0  0  0  0  0  0
  -32.8510  -11.7070   25.7850 O   0  0  0  0  0  0  0  0  0  0  0  0
  -33.5070  -10.1470   21.3450 O   0  0  0  0  0  0  0  0  0  0  0  0
  -29.8130  -12.8220   18.7310 O   0  0  0  0  0  0  0  0  0  0  0  0
  -27.5520  -17.2870   18.9520 O   0  0  0  0  0  0  0  0  0  0  0  0
  -25.1820  -16.7660   20.1550 O   0  0  0  0  0  0  0  0  0  0  0  0
  -27.1550  -13.2020   22.1870 H   0  0  0  0  0  0  0  0  0  0  0  0
  -25.1920  -14.6310   21.7900 H   0  0  0  0  0  0  0  0  0  0  0  0
  -29.5000  -15.6560   19.5040 H   0  0  0  0  0  0  0  0  0  0  0  0
  -34.0060  -10.2640   23.8450 H   0  0  0  0  0  0  0  0  0  0  0  0
  -30.9500  -13.1490   24.7990 H   0  0  0  0  0  0  0  0  0  0  0  0
  -32.4230  -10.9480   26.2170 H   0  0  0  0  0  0  0  0  0  0  0  0
  -33.5150   -9.2350   21.7170 H   0  0  0  0  0  0  0  0  0  0  0  0
  -29.8820  -11.9410   18.3260 H   0  0  0  0  0  0  0  0  0  0  0  0
  -26.7410  -17.2500   18.4060 H   0  0  0  0  0  0  0  0  0  0  0  0
  -25.3320  -17.1860   19.2900 H   0  0  0  0  0  0  0  0  0  0  0  0
  1 23  1  0  0  0  0
  2  1  1  0  0  0  0
  2 24  1  0  0  0  0
  3  2  2  0  0  0  0
  4  5  2  0  0  0  0
  4  3  1  0  0  0  0
  5  6  1  0  0  0  0
  6  7  1  0  0  0  0
  6  1  2  0  0  0  0
  7 17  1  0  0  0  0
  8  9  1  0  0  0  0
  8  7  2  0  0  0  0
  9 11  1  0  0  0  0
 10  9  2  0  0  0  0
 11 12  2  0  0  0  0
 11 16  1  0  0  0  0
 12 13  1  0  0  0  0
 13 26  1  0  0  0  0
 13 14  2  0  0  0  0
 14 18  1  0  0  0  0
 15 14  1  0  0  0  0
 15 27  1  0  0  0  0
 16 15  2  0  0  0  0
 17 16  1  0  0  0  0
 18 28  1  0  0  0  0
 19 29  1  0  0  0  0
 19 12  1  0  0  0  0
 20  8  1  0  0  0  0
 21  4  1  0  0  0  0
 22  3  1  0  0  0  0
 25  5  1  0  0  0  0
 30 20  1  0  0  0  0
 31 21  1  0  0  0  0
 32 22  1  0  0  0  0
M  END
>  <Pose>
1

>  <Score>
-4.14

$$$$
