
 OpenBabel10152114563D

 32 34  0  0  0  0  0  0  0  0999 V2000
  -32.9560   16.7450   18.2440 C   0  0  0  0  0  0  0  0  0  0  0  0
  -33.6350   16.2610   19.3670 C   0  0  0  0  0  0  0  0  0  0  0  0
  -33.2110   15.0760   19.9530 C   0  0  0  0  0  0  0  0  0  0  0  0
  -32.1300   14.3760   19.4210 C   0  0  0  0  0  0  0  0  0  0  0  0
  -31.4490   14.8480   18.3070 C   0  0  0  0  0  0  0  0  0  0  0  0
  -31.8510   16.0510   17.7150 C   0  0  0  0  0  0  0  0  0  0  0  0
  -31.1190   16.5870   16.5550 C   0  0  0  0  0  0  0  0  0  0  0  0
  -31.6730   16.6700   15.3290 C   0  0  0  0  0  0  0  0  0  0  0  0
  -30.8270   17.1800   14.2170 C   0  0  0  0  0  0  0  0  0  0  0  0
  -31.2280   17.2780   13.0600 O   0  0  0  0  0  0  0  0  0  0  0  0
  -29.4520   17.5740   14.5460 C   0  0  0  0  0  0  0  0  0  0  0  0
  -28.5740   18.0570   13.5680 C   0  0  0  0  0  0  0  0  0  0  0  0
  -27.2750   18.4260   13.9080 C   0  0  0  0  0  0  0  0  0  0  0  0
  -26.8640   18.3120   15.2330 C   0  0  0  0  0  0  0  0  0  0  0  0
  -27.7270   17.8320   16.2140 C   0  0  0  0  0  0  0  0  0  0  0  0
  -29.0260   17.4590   15.8660 C   0  0  0  0  0  0  0  0  0  0  0  0
  -29.8290   16.9820   16.8700 O   0  0  0  0  0  0  0  0  0  0  0  0
  -25.6020   18.6620   15.6150 O   0  0  0  0  0  0  0  0  0  0  0  0
  -28.9250   18.1900   12.2510 O   0  0  0  0  0  0  0  0  0  0  0  0
  -32.9770   16.3170   15.0270 O   0  0  0  0  0  0  0  0  0  0  0  0
  -31.7230   13.2100   20.0040 O   0  0  0  0  0  0  0  0  0  0  0  0
  -33.8230   14.5560   21.0580 O   0  0  0  0  0  0  0  0  0  0  0  0
  -33.2940   17.6710   17.7810 H   0  0  0  0  0  0  0  0  0  0  0  0
  -34.4800   16.8170   19.7590 H   0  0  0  0  0  0  0  0  0  0  0  0
  -30.6080   14.2810   17.9150 H   0  0  0  0  0  0  0  0  0  0  0  0
  -26.6090   18.7970   13.1360 H   0  0  0  0  0  0  0  0  0  0  0  0
  -27.3870   17.7490   17.2430 H   0  0  0  0  0  0  0  0  0  0  0  0
  -25.1250   17.8610   15.8920 H   0  0  0  0  0  0  0  0  0  0  0  0
  -28.3580   17.5830   11.7210 H   0  0  0  0  0  0  0  0  0  0  0  0
  -33.0540   16.1720   14.0690 H   0  0  0  0  0  0  0  0  0  0  0  0
  -32.1460   12.5060   19.4730 H   0  0  0  0  0  0  0  0  0  0  0  0
  -34.7830   14.6890   20.9680 H   0  0  0  0  0  0  0  0  0  0  0  0
  1  2  1  0  0  0  0
  2 24  1  0  0  0  0
  2  3  2  0  0  0  0
  3 22  1  0  0  0  0
  4  3  1  0  0  0  0
  4 21  1  0  0  0  0
  5  4  2  0  0  0  0
  6  1  2  0  0  0  0
  6  5  1  0  0  0  0
  7 17  1  0  0  0  0
  7  6  1  0  0  0  0
  8  7  2  0  0  0  0
  9 11  1  0  0  0  0
  9  8  1  0  0  0  0
 10  9  2  0  0  0  0
 11 16  1  0  0  0  0
 12 13  1  0  0  0  0
 12 11  2  0  0  0  0
 13 14  2  0  0  0  0
 14 18  1  0  0  0  0
 14 15  1  0  0  0  0
 15 27  1  0  0  0  0
 16 15  2  0  0  0  0
 16 17  1  0  0  0  0
 18 28  1  0  0  0  0
 19 12  1  0  0  0  0
 20  8  1  0  0  0  0
 23  1  1  0  0  0  0
 25  5  1  0  0  0  0
 26 13  1  0  0  0  0
 29 19  1  0  0  0  0
 30 20  1  0  0  0  0
 31 21  1  0  0  0  0
 32 22  1  0  0  0  0
M  END
>  <Pose>
1

>  <Score>
-7.13

$$$$

 OpenBabel10152114563D

 32 34  0  0  0  0  0  0  0  0999 V2000
  -27.3150   24.7060   12.6860 C   0  0  0  0  0  0  0  0  0  0  0  0
  -27.4570   25.9040   11.9780 C   0  0  0  0  0  0  0  0  0  0  0  0
  -27.0770   25.9480   10.6440 C   0  0  0  0  0  0  0  0  0  0  0  0
  -26.5520   24.8160   10.0240 C   0  0  0  0  0  0  0  0  0  0  0  0
  -26.4080   23.6220   10.7170 C   0  0  0  0  0  0  0  0  0  0  0  0
  -26.8030   23.5540   12.0580 C   0  0  0  0  0  0  0  0  0  0  0  0
  -26.6930   22.2870   12.8000 C   0  0  0  0  0  0  0  0  0  0  0  0
  -25.6510   22.0170   13.6130 C   0  0  0  0  0  0  0  0  0  0  0  0
  -25.6130   20.6850   14.2740 C   0  0  0  0  0  0  0  0  0  0  0  0
  -24.7010   20.3320   15.0190 O   0  0  0  0  0  0  0  0  0  0  0  0
  -26.7280   19.7700   14.0050 C   0  0  0  0  0  0  0  0  0  0  0  0
  -26.7800   18.4910   14.5720 C   0  0  0  0  0  0  0  0  0  0  0  0
  -27.8520   17.6440   14.3020 C   0  0  0  0  0  0  0  0  0  0  0  0
  -28.8710   18.0870   13.4640 C   0  0  0  0  0  0  0  0  0  0  0  0
  -28.8300   19.3560   12.8940 C   0  0  0  0  0  0  0  0  0  0  0  0
  -27.7510   20.1990   13.1640 C   0  0  0  0  0  0  0  0  0  0  0  0
  -27.7570   21.4320   12.5660 O   0  0  0  0  0  0  0  0  0  0  0  0
  -29.9400   17.2940   13.1710 O   0  0  0  0  0  0  0  0  0  0  0  0
  -25.8070   18.0040   15.4030 O   0  0  0  0  0  0  0  0  0  0  0  0
  -24.6110   22.8910   13.8810 O   0  0  0  0  0  0  0  0  0  0  0  0
  -26.1790   24.8720    8.7110 O   0  0  0  0  0  0  0  0  0  0  0  0
  -27.2010   27.0840    9.8940 O   0  0  0  0  0  0  0  0  0  0  0  0
  -27.6070   24.6740   13.7350 H   0  0  0  0  0  0  0  0  0  0  0  0
  -27.8590   26.7770   12.4830 H   0  0  0  0  0  0  0  0  0  0  0  0
  -25.9970   22.7540   10.2070 H   0  0  0  0  0  0  0  0  0  0  0  0
  -27.8730   16.6550   14.7500 H   0  0  0  0  0  0  0  0  0  0  0  0
  -29.6350   19.6830   12.2410 H   0  0  0  0  0  0  0  0  0  0  0  0
  -29.7300   16.7610   12.3850 H   0  0  0  0  0  0  0  0  0  0  0  0
  -25.1730   17.4820   14.8580 H   0  0  0  0  0  0  0  0  0  0  0  0
  -24.1420   23.0910   13.0540 H   0  0  0  0  0  0  0  0  0  0  0  0
  -25.5180   25.5920    8.6710 H   0  0  0  0  0  0  0  0  0  0  0  0
  -26.3590   27.2400    9.4320 H   0  0  0  0  0  0  0  0  0  0  0  0
  1 23  1  0  0  0  0
  2 24  1  0  0  0  0
  2  1  2  0  0  0  0
  3  2  1  0  0  0  0
  4  3  2  0  0  0  0
  4  5  1  0  0  0  0
  5  6  2  0  0  0  0
  6  1  1  0  0  0  0
  6  7  1  0  0  0  0
  7  8  2  0  0  0  0
  8 20  1  0  0  0  0
  8  9  1  0  0  0  0
  9 10  2  0  0  0  0
 11  9  1  0  0  0  0
 11 12  1  0  0  0  0
 12 19  1  0  0  0  0
 13 12  2  0  0  0  0
 13 26  1  0  0  0  0
 14 13  1  0  0  0  0
 15 16  1  0  0  0  0
 15 14  2  0  0  0  0
 16 11  2  0  0  0  0
 17  7  1  0  0  0  0
 17 16  1  0  0  0  0
 18 14  1  0  0  0  0
 21  4  1  0  0  0  0
 22  3  1  0  0  0  0
 25  5  1  0  0  0  0
 27 15  1  0  0  0  0
 28 18  1  0  0  0  0
 29 19  1  0  0  0  0
 30 20  1  0  0  0  0
 31 21  1  0  0  0  0
 32 22  1  0  0  0  0
M  END
>  <Pose>
1

>  <Score>
-7.01

$$$$

 OpenBabel10152114563D

 32 34  0  0  0  0  0  0  0  0999 V2000
  -30.1620   14.3320   17.4820 C   0  0  0  0  0  0  0  0  0  0  0  0
  -30.6450   13.5540   18.5390 C   0  0  0  0  0  0  0  0  0  0  0  0
  -31.6060   14.0890   19.3850 C   0  0  0  0  0  0  0  0  0  0  0  0
  -32.0740   15.3870   19.1880 C   0  0  0  0  0  0  0  0  0  0  0  0
  -31.6000   16.1670   18.1420 C   0  0  0  0  0  0  0  0  0  0  0  0
  -30.6440   15.6370   17.2680 C   0  0  0  0  0  0  0  0  0  0  0  0
  -30.1570   16.4350   16.1300 C   0  0  0  0  0  0  0  0  0  0  0  0
  -30.8570   16.5550   14.9830 C   0  0  0  0  0  0  0  0  0  0  0  0
  -30.2490   17.3430   13.8770 C   0  0  0  0  0  0  0  0  0  0  0  0
  -30.7940   17.4980   12.7870 O   0  0  0  0  0  0  0  0  0  0  0  0
  -28.9360   17.9480   14.1280 C   0  0  0  0  0  0  0  0  0  0  0  0
  -28.2770   18.7000   13.1480 C   0  0  0  0  0  0  0  0  0  0  0  0
  -27.0330   19.2670   13.4130 C   0  0  0  0  0  0  0  0  0  0  0  0
  -26.4560   19.0780   14.6660 C   0  0  0  0  0  0  0  0  0  0  0  0
  -27.1010   18.3310   15.6480 C   0  0  0  0  0  0  0  0  0  0  0  0
  -28.3460   17.7620   15.3750 C   0  0  0  0  0  0  0  0  0  0  0  0
  -28.9300   17.0270   16.3740 O   0  0  0  0  0  0  0  0  0  0  0  0
  -25.2400   19.6130   14.9730 O   0  0  0  0  0  0  0  0  0  0  0  0
  -28.7970   18.9190   11.9000 O   0  0  0  0  0  0  0  0  0  0  0  0
  -32.1050   15.9990   14.7580 O   0  0  0  0  0  0  0  0  0  0  0  0
  -33.0180   15.9040   20.0280 O   0  0  0  0  0  0  0  0  0  0  0  0
  -32.1280   13.3770   20.4280 O   0  0  0  0  0  0  0  0  0  0  0  0
  -29.4020   13.9140   16.8220 H   0  0  0  0  0  0  0  0  0  0  0  0
  -30.2610   12.5480   18.6800 H   0  0  0  0  0  0  0  0  0  0  0  0
  -31.9840   17.1760   18.0110 H   0  0  0  0  0  0  0  0  0  0  0  0
  -26.5370   19.8450   12.6400 H   0  0  0  0  0  0  0  0  0  0  0  0
  -26.6340   18.1940   16.6190 H   0  0  0  0  0  0  0  0  0  0  0  0
  -24.5630   19.1960   14.4130 H   0  0  0  0  0  0  0  0  0  0  0  0
  -28.9540   18.0430   11.4770 H   0  0  0  0  0  0  0  0  0  0  0  0
  -32.7040   16.2570   15.4770 H   0  0  0  0  0  0  0  0  0  0  0  0
  -32.5580   16.0050   20.8860 H   0  0  0  0  0  0  0  0  0  0  0  0
  -32.5480   12.5750   20.0730 H   0  0  0  0  0  0  0  0  0  0  0  0
  1  2  1  0  0  0  0
  2 24  1  0  0  0  0
  2  3  2  0  0  0  0
  3 22  1  0  0  0  0
  4  3  1  0  0  0  0
  4 21  1  0  0  0  0
  5  4  2  0  0  0  0
  6  1  2  0  0  0  0
  6  5  1  0  0  0  0
  7 17  1  0  0  0  0
  7  6  1  0  0  0  0
  8  7  2  0  0  0  0
  9 11  1  0  0  0  0
  9  8  1  0  0  0  0
 10  9  2  0  0  0  0
 11 16  1  0  0  0  0
 12 13  1  0  0  0  0
 12 11  2  0  0  0  0
 13 14  2  0  0  0  0
 14 18  1  0  0  0  0
 14 15  1  0  0  0  0
 15 27  1  0  0  0  0
 16 15  2  0  0  0  0
 16 17  1  0  0  0  0
 19 12  1  0  0  0  0
 20  8  1  0  0  0  0
 20 30  1  0  0  0  0
 21 31  1  0  0  0  0
 23  1  1  0  0  0  0
 25  5  1  0  0  0  0
 26 13  1  0  0  0  0
 28 18  1  0  0  0  0
 29 19  1  0  0  0  0
 32 22  1  0  0  0  0
M  END
>  <Pose>
1

>  <Score>
-6.83

$$$$

 OpenBabel10152114563D

 32 34  0  0  0  0  0  0  0  0999 V2000
  -29.3890   18.3290   15.0750 C   0  0  0  0  0  0  0  0  0  0  0  0
  -30.2590   17.2660   15.3380 C   0  0  0  0  0  0  0  0  0  0  0  0
  -30.9180   16.6570   14.2780 C   0  0  0  0  0  0  0  0  0  0  0  0
  -30.7210   17.1070   12.9750 C   0  0  0  0  0  0  0  0  0  0  0  0
  -29.8590   18.1610   12.7040 C   0  0  0  0  0  0  0  0  0  0  0  0
  -29.1730   18.7750   13.7580 C   0  0  0  0  0  0  0  0  0  0  0  0
  -28.2260   19.8700   13.4870 C   0  0  0  0  0  0  0  0  0  0  0  0
  -26.9120   19.7740   13.7760 C   0  0  0  0  0  0  0  0  0  0  0  0
  -26.0530   20.9590   13.5090 C   0  0  0  0  0  0  0  0  0  0  0  0
  -24.8490   20.9820   13.7520 O   0  0  0  0  0  0  0  0  0  0  0  0
  -26.7020   22.1410   12.9320 C   0  0  0  0  0  0  0  0  0  0  0  0
  -25.9820   23.3100   12.6530 C   0  0  0  0  0  0  0  0  0  0  0  0
  -26.6220   24.4170   12.1020 C   0  0  0  0  0  0  0  0  0  0  0  0
  -27.9850   24.3450   11.8300 C   0  0  0  0  0  0  0  0  0  0  0  0
  -28.7120   23.1890   12.1030 C   0  0  0  0  0  0  0  0  0  0  0  0
  -28.0660   22.0850   12.6600 C   0  0  0  0  0  0  0  0  0  0  0  0
  -28.8330   20.9780   12.9200 O   0  0  0  0  0  0  0  0  0  0  0  0
  -28.6560   25.4030   11.2900 O   0  0  0  0  0  0  0  0  0  0  0  0
  -24.6410   23.4360   12.9000 O   0  0  0  0  0  0  0  0  0  0  0  0
  -26.3000   18.6490   14.3010 O   0  0  0  0  0  0  0  0  0  0  0  0
  -31.3760   16.5020   11.9410 O   0  0  0  0  0  0  0  0  0  0  0  0
  -31.7710   15.6060   14.4660 O   0  0  0  0  0  0  0  0  0  0  0  0
  -28.8780   18.8110   15.9080 H   0  0  0  0  0  0  0  0  0  0  0  0
  -30.4060   16.9370   16.3620 H   0  0  0  0  0  0  0  0  0  0  0  0
  -29.7240   18.4910   11.6770 H   0  0  0  0  0  0  0  0  0  0  0  0
  -26.0470   25.3140   11.8940 H   0  0  0  0  0  0  0  0  0  0  0  0
  -29.7760   23.1540   11.8850 H   0  0  0  0  0  0  0  0  0  0  0  0
  -29.4580   25.0740   10.8490 H   0  0  0  0  0  0  0  0  0  0  0  0
  -24.1670   23.3990   12.0360 H   0  0  0  0  0  0  0  0  0  0  0  0
  -25.3520   18.6720   14.0880 H   0  0  0  0  0  0  0  0  0  0  0  0
  -30.7640   16.5760   11.1810 H   0  0  0  0  0  0  0  0  0  0  0  0
  -32.6190   15.9530   14.7920 H   0  0  0  0  0  0  0  0  0  0  0  0
  1  2  1  0  0  0  0
  1 23  1  0  0  0  0
  2 24  1  0  0  0  0
  3 22  1  0  0  0  0
  3  2  2  0  0  0  0
  4  3  1  0  0  0  0
  5  4  2  0  0  0  0
  5  6  1  0  0  0  0
  6  1  2  0  0  0  0
  7  6  1  0  0  0  0
  7  8  2  0  0  0  0
  8 20  1  0  0  0  0
  9 10  2  0  0  0  0
  9  8  1  0  0  0  0
 11  9  1  0  0  0  0
 12 19  1  0  0  0  0
 12 11  2  0  0  0  0
 13 12  1  0  0  0  0
 14 13  2  0  0  0  0
 14 15  1  0  0  0  0
 15 16  2  0  0  0  0
 16 17  1  0  0  0  0
 16 11  1  0  0  0  0
 17  7  1  0  0  0  0
 18 14  1  0  0  0  0
 21  4  1  0  0  0  0
 22 32  1  0  0  0  0
 25  5  1  0  0  0  0
 26 13  1  0  0  0  0
 27 15  1  0  0  0  0
 28 18  1  0  0  0  0
 29 19  1  0  0  0  0
 30 20  1  0  0  0  0
 31 21  1  0  0  0  0
M  END
>  <Pose>
1

>  <Score>
-6.79

$$$$

 OpenBabel10152114563D

 32 34  0  0  0  0  0  0  0  0999 V2000
  -30.1030   16.0440   15.7460 C   0  0  0  0  0  0  0  0  0  0  0  0
  -30.8300   15.1380   16.5250 C   0  0  0  0  0  0  0  0  0  0  0  0
  -31.5300   15.6080   17.6290 C   0  0  0  0  0  0  0  0  0  0  0  0
  -31.4990   16.9610   17.9580 C   0  0  0  0  0  0  0  0  0  0  0  0
  -30.7800   17.8690   17.1910 C   0  0  0  0  0  0  0  0  0  0  0  0
  -30.0840   17.4150   16.0640 C   0  0  0  0  0  0  0  0  0  0  0  0
  -29.3470   18.3680   15.2160 C   0  0  0  0  0  0  0  0  0  0  0  0
  -28.0550   18.1790   14.8770 C   0  0  0  0  0  0  0  0  0  0  0  0
  -27.3910   19.2300   14.0590 C   0  0  0  0  0  0  0  0  0  0  0  0
  -26.2140   19.1650   13.7120 O   0  0  0  0  0  0  0  0  0  0  0  0
  -28.2040   20.3860   13.6650 C   0  0  0  0  0  0  0  0  0  0  0  0
  -27.6690   21.4320   12.9030 C   0  0  0  0  0  0  0  0  0  0  0  0
  -28.4630   22.5170   12.5400 C   0  0  0  0  0  0  0  0  0  0  0  0
  -29.7950   22.5460   12.9430 C   0  0  0  0  0  0  0  0  0  0  0  0
  -30.3380   21.5120   13.7020 C   0  0  0  0  0  0  0  0  0  0  0  0
  -29.5360   20.4300   14.0660 C   0  0  0  0  0  0  0  0  0  0  0  0
  -30.1190   19.4480   14.8230 O   0  0  0  0  0  0  0  0  0  0  0  0
  -30.6120   23.5860   12.6110 O   0  0  0  0  0  0  0  0  0  0  0  0
  -26.3670   21.4560   12.4800 O   0  0  0  0  0  0  0  0  0  0  0  0
  -27.2980   17.0770   15.2340 O   0  0  0  0  0  0  0  0  0  0  0  0
  -32.1880   17.4120   19.0470 O   0  0  0  0  0  0  0  0  0  0  0  0
  -32.2690   14.7770   18.4230 O   0  0  0  0  0  0  0  0  0  0  0  0
  -29.5490   15.6740   14.8850 H   0  0  0  0  0  0  0  0  0  0  0  0
  -30.8340   14.0870   16.2570 H   0  0  0  0  0  0  0  0  0  0  0  0
  -30.7740   18.9190   17.4710 H   0  0  0  0  0  0  0  0  0  0  0  0
  -28.0290   23.3180   11.9500 H   0  0  0  0  0  0  0  0  0  0  0  0
  -31.3800   21.5540   14.0070 H   0  0  0  0  0  0  0  0  0  0  0  0
  -30.1010   24.4120   12.6560 H   0  0  0  0  0  0  0  0  0  0  0  0
  -26.3520   21.7960   11.5550 H   0  0  0  0  0  0  0  0  0  0  0  0
  -26.5400   17.3690   15.7670 H   0  0  0  0  0  0  0  0  0  0  0  0
  -31.8050   16.9240   19.8040 H   0  0  0  0  0  0  0  0  0  0  0  0
  -31.9670   13.8640   18.2780 H   0  0  0  0  0  0  0  0  0  0  0  0
  1  6  2  0  0  0  0
  1  2  1  0  0  0  0
  2  3  2  0  0  0  0
  3  4  1  0  0  0  0
  3 22  1  0  0  0  0
  4 21  1  0  0  0  0
  5 25  1  0  0  0  0
  5  4  2  0  0  0  0
  6  5  1  0  0  0  0
  7  6  1  0  0  0  0
  8  7  2  0  0  0  0
  8 20  1  0  0  0  0
  9  8  1  0  0  0  0
 10  9  2  0  0  0  0
 11  9  1  0  0  0  0
 11 16  1  0  0  0  0
 12 11  2  0  0  0  0
 13 12  1  0  0  0  0
 13 14  2  0  0  0  0
 14 15  1  0  0  0  0
 15 27  1  0  0  0  0
 15 16  2  0  0  0  0
 16 17  1  0  0  0  0
 17  7  1  0  0  0  0
 18 28  1  0  0  0  0
 18 14  1  0  0  0  0
 19 12  1  0  0  0  0
 20 30  1  0  0  0  0
 21 31  1  0  0  0  0
 23  1  1  0  0  0  0
 24  2  1  0  0  0  0
 26 13  1  0  0  0  0
 29 19  1  0  0  0  0
 32 22  1  0  0  0  0
M  END
>  <Pose>
1

>  <Score>
-6.50

$$$$
