
 OpenBabel10152114563D

 32 34  0  0  0  0  0  0  0  0999 V2000
   -4.9740   29.6210   16.5910 C   0  0  0  0  0  0  0  0  0  0  0  0
   -3.8270   28.8880   16.2720 C   0  0  0  0  0  0  0  0  0  0  0  0
   -3.6870   27.6020   16.7770 C   0  0  0  0  0  0  0  0  0  0  0  0
   -4.6710   27.0570   17.5980 C   0  0  0  0  0  0  0  0  0  0  0  0
   -5.8140   27.7770   17.9200 C   0  0  0  0  0  0  0  0  0  0  0  0
   -5.9810   29.0680   17.4050 C   0  0  0  0  0  0  0  0  0  0  0  0
   -7.2030   29.8330   17.7040 C   0  0  0  0  0  0  0  0  0  0  0  0
   -8.2700   29.8360   16.8800 C   0  0  0  0  0  0  0  0  0  0  0  0
   -9.4340   30.6850   17.2530 C   0  0  0  0  0  0  0  0  0  0  0  0
  -10.4470   30.7730   16.5630 O   0  0  0  0  0  0  0  0  0  0  0  0
   -9.3360   31.4430   18.5050 C   0  0  0  0  0  0  0  0  0  0  0  0
  -10.3740   32.2780   18.9380 C   0  0  0  0  0  0  0  0  0  0  0  0
  -10.2580   32.9840   20.1330 C   0  0  0  0  0  0  0  0  0  0  0  0
   -9.0980   32.8470   20.8900 C   0  0  0  0  0  0  0  0  0  0  0  0
   -8.0590   32.0200   20.4700 C   0  0  0  0  0  0  0  0  0  0  0  0
   -8.1800   31.3190   19.2700 C   0  0  0  0  0  0  0  0  0  0  0  0
   -7.1220   30.5300   18.8980 O   0  0  0  0  0  0  0  0  0  0  0  0
   -8.9380   33.5170   22.0670 O   0  0  0  0  0  0  0  0  0  0  0  0
  -11.5360   32.4510   18.2340 O   0  0  0  0  0  0  0  0  0  0  0  0
   -8.3660   29.1030   15.7090 O   0  0  0  0  0  0  0  0  0  0  0  0
   -4.5220   25.7930   18.0920 O   0  0  0  0  0  0  0  0  0  0  0  0
   -2.5960   26.8290   16.4940 O   0  0  0  0  0  0  0  0  0  0  0  0
   -5.0800   30.6320   16.2000 H   0  0  0  0  0  0  0  0  0  0  0  0
   -3.0670   29.3340   15.6380 H   0  0  0  0  0  0  0  0  0  0  0  0
   -6.5670   27.3270   18.5620 H   0  0  0  0  0  0  0  0  0  0  0  0
  -11.0720   33.6270   20.4510 H   0  0  0  0  0  0  0  0  0  0  0  0
   -7.1620   31.9270   21.0750 H   0  0  0  0  0  0  0  0  0  0  0  0
   -9.7050   34.1000   22.2030 H   0  0  0  0  0  0  0  0  0  0  0  0
  -11.9400   31.5640   18.0900 H   0  0  0  0  0  0  0  0  0  0  0  0
   -8.9180   28.3190   15.8670 H   0  0  0  0  0  0  0  0  0  0  0  0
   -4.5920   25.8950   19.0620 H   0  0  0  0  0  0  0  0  0  0  0  0
   -2.2560   26.4600   17.3270 H   0  0  0  0  0  0  0  0  0  0  0  0
  1  6  1  0  0  0  0
  2  1  2  0  0  0  0
  2  3  1  0  0  0  0
  3  4  2  0  0  0  0
  4  5  1  0  0  0  0
  4 21  1  0  0  0  0
  5 25  1  0  0  0  0
  6  7  1  0  0  0  0
  6  5  2  0  0  0  0
  7 17  1  0  0  0  0
  8  9  1  0  0  0  0
  8  7  2  0  0  0  0
  9 11  1  0  0  0  0
 10  9  2  0  0  0  0
 11 12  2  0  0  0  0
 11 16  1  0  0  0  0
 12 13  1  0  0  0  0
 13 26  1  0  0  0  0
 13 14  2  0  0  0  0
 14 18  1  0  0  0  0
 15 14  1  0  0  0  0
 15 27  1  0  0  0  0
 16 15  2  0  0  0  0
 17 16  1  0  0  0  0
 18 28  1  0  0  0  0
 19 12  1  0  0  0  0
 20 30  1  0  0  0  0
 20  8  1  0  0  0  0
 21 31  1  0  0  0  0
 22  3  1  0  0  0  0
 22 32  1  0  0  0  0
 23  1  1  0  0  0  0
 24  2  1  0  0  0  0
 29 19  1  0  0  0  0
M  END
>  <Pose>
3

>  <Score>
-4.63

$$$$

 OpenBabel10152114563D

 32 34  0  0  0  0  0  0  0  0999 V2000
   -7.8040   31.5800   17.7250 C   0  0  0  0  0  0  0  0  0  0  0  0
   -6.9520   30.4800   17.5840 C   0  0  0  0  0  0  0  0  0  0  0  0
   -7.4700   29.2830   17.1060 C   0  0  0  0  0  0  0  0  0  0  0  0
   -8.8210   29.1810   16.7820 C   0  0  0  0  0  0  0  0  0  0  0  0
   -9.6750   30.2680   16.9180 C   0  0  0  0  0  0  0  0  0  0  0  0
   -9.1660   31.4870   17.3810 C   0  0  0  0  0  0  0  0  0  0  0  0
  -10.0460   32.6620   17.4960 C   0  0  0  0  0  0  0  0  0  0  0  0
  -10.5460   33.0730   18.6790 C   0  0  0  0  0  0  0  0  0  0  0  0
  -11.4680   34.2410   18.6750 C   0  0  0  0  0  0  0  0  0  0  0  0
  -11.9920   34.6840   19.6950 O   0  0  0  0  0  0  0  0  0  0  0  0
  -11.7480   34.8710   17.3800 C   0  0  0  0  0  0  0  0  0  0  0  0
  -12.6090   35.9690   17.2700 C   0  0  0  0  0  0  0  0  0  0  0  0
  -12.8540   36.5500   16.0280 C   0  0  0  0  0  0  0  0  0  0  0  0
  -12.2310   36.0260   14.9000 C   0  0  0  0  0  0  0  0  0  0  0  0
  -11.3730   34.9330   14.9970 C   0  0  0  0  0  0  0  0  0  0  0  0
  -11.1350   34.3530   16.2430 C   0  0  0  0  0  0  0  0  0  0  0  0
  -10.2920   33.2720   16.2770 O   0  0  0  0  0  0  0  0  0  0  0  0
  -12.4390   36.5610   13.6640 O   0  0  0  0  0  0  0  0  0  0  0  0
  -13.2490   36.5260   18.3450 O   0  0  0  0  0  0  0  0  0  0  0  0
  -10.2640   32.4890   19.9020 O   0  0  0  0  0  0  0  0  0  0  0  0
   -9.3210   27.9990   16.3160 O   0  0  0  0  0  0  0  0  0  0  0  0
   -6.6900   28.1750   16.9340 O   0  0  0  0  0  0  0  0  0  0  0  0
   -7.3980   32.5160   18.1060 H   0  0  0  0  0  0  0  0  0  0  0  0
   -5.9050   30.5780   17.8510 H   0  0  0  0  0  0  0  0  0  0  0  0
  -10.7240   30.1600   16.6560 H   0  0  0  0  0  0  0  0  0  0  0  0
  -13.5260   37.4010   15.9640 H   0  0  0  0  0  0  0  0  0  0  0  0
  -10.8960   34.5380   14.1040 H   0  0  0  0  0  0  0  0  0  0  0  0
  -11.6710   36.3610   13.1020 H   0  0  0  0  0  0  0  0  0  0  0  0
  -14.1620   36.1580   18.3810 H   0  0  0  0  0  0  0  0  0  0  0  0
  -10.5000   31.5460   19.8670 H   0  0  0  0  0  0  0  0  0  0  0  0
   -9.9200   27.6860   17.0230 H   0  0  0  0  0  0  0  0  0  0  0  0
   -6.7130   27.6520   17.7550 H   0  0  0  0  0  0  0  0  0  0  0  0
  1 23  1  0  0  0  0
  2  1  1  0  0  0  0
  2 24  1  0  0  0  0
  3  2  2  0  0  0  0
  4  5  2  0  0  0  0
  4  3  1  0  0  0  0
  5  6  1  0  0  0  0
  6  7  1  0  0  0  0
  6  1  2  0  0  0  0
  7  8  2  0  0  0  0
  8 20  1  0  0  0  0
  9  8  1  0  0  0  0
  9 10  2  0  0  0  0
 11  9  1  0  0  0  0
 12 11  1  0  0  0  0
 12 19  1  0  0  0  0
 13 12  2  0  0  0  0
 14 15  2  0  0  0  0
 14 13  1  0  0  0  0
 15 16  1  0  0  0  0
 16 17  1  0  0  0  0
 16 11  2  0  0  0  0
 17  7  1  0  0  0  0
 18 14  1  0  0  0  0
 19 29  1  0  0  0  0
 21  4  1  0  0  0  0
 21 31  1  0  0  0  0
 22  3  1  0  0  0  0
 22 32  1  0  0  0  0
 25  5  1  0  0  0  0
 26 13  1  0  0  0  0
 27 15  1  0  0  0  0
 28 18  1  0  0  0  0
 30 20  1  0  0  0  0
M  END
>  <Pose>
1

>  <Score>
-4.53

$$$$

 OpenBabel10152114563D

 32 34  0  0  0  0  0  0  0  0999 V2000
   -9.2120   29.8910   16.9430 C   0  0  0  0  0  0  0  0  0  0  0  0
   -8.3070   28.8250   16.9480 C   0  0  0  0  0  0  0  0  0  0  0  0
   -7.0850   28.9800   17.5890 C   0  0  0  0  0  0  0  0  0  0  0  0
   -6.7640   30.1860   18.2090 C   0  0  0  0  0  0  0  0  0  0  0  0
   -7.6560   31.2500   18.2110 C   0  0  0  0  0  0  0  0  0  0  0  0
   -8.8990   31.1050   17.5840 C   0  0  0  0  0  0  0  0  0  0  0  0
   -9.8740   32.2090   17.6070 C   0  0  0  0  0  0  0  0  0  0  0  0
  -10.8230   32.3120   18.5600 C   0  0  0  0  0  0  0  0  0  0  0  0
  -11.7890   33.4380   18.4590 C   0  0  0  0  0  0  0  0  0  0  0  0
  -12.7020   33.6130   19.2640 O   0  0  0  0  0  0  0  0  0  0  0  0
  -11.6220   34.3670   17.3350 C   0  0  0  0  0  0  0  0  0  0  0  0
  -12.4850   35.4530   17.1480 C   0  0  0  0  0  0  0  0  0  0  0  0
  -12.3020   36.3220   16.0750 C   0  0  0  0  0  0  0  0  0  0  0  0
  -11.2490   36.0960   15.1940 C   0  0  0  0  0  0  0  0  0  0  0  0
  -10.3840   35.0190   15.3690 C   0  0  0  0  0  0  0  0  0  0  0  0
  -10.5750   34.1500   16.4440 C   0  0  0  0  0  0  0  0  0  0  0  0
   -9.7020   33.1000   16.5610 O   0  0  0  0  0  0  0  0  0  0  0  0
  -11.0290   36.9190   14.1290 O   0  0  0  0  0  0  0  0  0  0  0  0
  -13.5370   35.7230   17.9830 O   0  0  0  0  0  0  0  0  0  0  0  0
  -10.9640   31.4450   19.6300 O   0  0  0  0  0  0  0  0  0  0  0  0
   -5.5590   30.3280   18.8350 O   0  0  0  0  0  0  0  0  0  0  0  0
   -6.1620   27.9740   17.6400 O   0  0  0  0  0  0  0  0  0  0  0  0
  -10.1670   29.7710   16.4340 H   0  0  0  0  0  0  0  0  0  0  0  0
   -8.5730   27.8970   16.4500 H   0  0  0  0  0  0  0  0  0  0  0  0
   -7.3790   32.1790   18.7030 H   0  0  0  0  0  0  0  0  0  0  0  0
  -12.9840   37.1570   15.9460 H   0  0  0  0  0  0  0  0  0  0  0  0
   -9.5680   34.8600   14.6700 H   0  0  0  0  0  0  0  0  0  0  0  0
  -10.4670   36.4550   13.4850 H   0  0  0  0  0  0  0  0  0  0  0  0
  -14.1280   34.9340   17.9940 H   0  0  0  0  0  0  0  0  0  0  0  0
  -11.1810   30.5590   19.2960 H   0  0  0  0  0  0  0  0  0  0  0  0
   -5.4620   29.5190   19.3750 H   0  0  0  0  0  0  0  0  0  0  0  0
   -6.0270   27.7280   18.5720 H   0  0  0  0  0  0  0  0  0  0  0  0
  1  2  2  0  0  0  0
  1  6  1  0  0  0  0
  2  3  1  0  0  0  0
  3 22  1  0  0  0  0
  3  4  2  0  0  0  0
  4  5  1  0  0  0  0
  4 21  1  0  0  0  0
  5 25  1  0  0  0  0
  6  7  1  0  0  0  0
  6  5  2  0  0  0  0
  7  8  2  0  0  0  0
  8 20  1  0  0  0  0
  9  8  1  0  0  0  0
  9 10  2  0  0  0  0
 11  9  1  0  0  0  0
 12 11  1  0  0  0  0
 12 19  1  0  0  0  0
 13 12  2  0  0  0  0
 14 15  2  0  0  0  0
 14 13  1  0  0  0  0
 15 16  1  0  0  0  0
 16 17  1  0  0  0  0
 16 11  2  0  0  0  0
 17  7  1  0  0  0  0
 18 14  1  0  0  0  0
 19 29  1  0  0  0  0
 21 31  1  0  0  0  0
 22 32  1  0  0  0  0
 23  1  1  0  0  0  0
 24  2  1  0  0  0  0
 26 13  1  0  0  0  0
 27 15  1  0  0  0  0
 28 18  1  0  0  0  0
 30 20  1  0  0  0  0
M  END
>  <Pose>
1

>  <Score>
-4.45

$$$$
