
 OpenBabel10152114563D

 32 34  0  0  0  0  0  0  0  0999 V2000
  -18.3560   -9.0750    9.6340 C   0  0  0  0  0  0  0  0  0  0  0  0
  -18.7260  -10.3500   10.0760 C   0  0  0  0  0  0  0  0  0  0  0  0
  -18.8920  -10.5700   11.4370 C   0  0  0  0  0  0  0  0  0  0  0  0
  -18.6830   -9.5370   12.3470 C   0  0  0  0  0  0  0  0  0  0  0  0
  -18.3160   -8.2680   11.9190 C   0  0  0  0  0  0  0  0  0  0  0  0
  -18.1620   -8.0240   10.5490 C   0  0  0  0  0  0  0  0  0  0  0  0
  -17.8100   -6.6750   10.0720 C   0  0  0  0  0  0  0  0  0  0  0  0
  -18.5980   -5.6040   10.2950 C   0  0  0  0  0  0  0  0  0  0  0  0
  -18.1730   -4.2980    9.7240 C   0  0  0  0  0  0  0  0  0  0  0  0
  -18.8280   -3.2660    9.8530 O   0  0  0  0  0  0  0  0  0  0  0  0
  -16.9120   -4.2720    8.9750 C   0  0  0  0  0  0  0  0  0  0  0  0
  -16.4310   -3.0930    8.3920 C   0  0  0  0  0  0  0  0  0  0  0  0
  -15.2280   -3.0950    7.6890 C   0  0  0  0  0  0  0  0  0  0  0  0
  -14.5120   -4.2830    7.5770 C   0  0  0  0  0  0  0  0  0  0  0  0
  -14.9800   -5.4610    8.1520 C   0  0  0  0  0  0  0  0  0  0  0  0
  -16.1870   -5.4540    8.8510 C   0  0  0  0  0  0  0  0  0  0  0  0
  -16.6070   -6.6440    9.3860 O   0  0  0  0  0  0  0  0  0  0  0  0
  -13.3290   -4.3340    6.8990 O   0  0  0  0  0  0  0  0  0  0  0  0
  -17.0940   -1.8970    8.4700 O   0  0  0  0  0  0  0  0  0  0  0  0
  -19.7770   -5.6300   11.0190 O   0  0  0  0  0  0  0  0  0  0  0  0
  -18.8460   -9.7650   13.6840 O   0  0  0  0  0  0  0  0  0  0  0  0
  -19.2640  -11.7880   11.9320 O   0  0  0  0  0  0  0  0  0  0  0  0
  -18.2190   -8.9060    8.5670 H   0  0  0  0  0  0  0  0  0  0  0  0
  -18.8750  -11.1440    9.3510 H   0  0  0  0  0  0  0  0  0  0  0  0
  -18.1600   -7.4800   12.6520 H   0  0  0  0  0  0  0  0  0  0  0  0
  -14.8730   -2.1720    7.2420 H   0  0  0  0  0  0  0  0  0  0  0  0
  -14.4060   -6.3780    8.0530 H   0  0  0  0  0  0  0  0  0  0  0  0
  -12.7700   -5.0230    7.2970 H   0  0  0  0  0  0  0  0  0  0  0  0
  -16.7980   -1.4370    9.2900 H   0  0  0  0  0  0  0  0  0  0  0  0
  -20.4170   -6.2060   10.5690 H   0  0  0  0  0  0  0  0  0  0  0  0
  -19.7580  -10.1090   13.7670 H   0  0  0  0  0  0  0  0  0  0  0  0
  -20.1180  -11.6870   12.3870 H   0  0  0  0  0  0  0  0  0  0  0  0
  1  2  2  0  0  0  0
  1  6  1  0  0  0  0
  2  3  1  0  0  0  0
  3 22  1  0  0  0  0
  3  4  2  0  0  0  0
  4 21  1  0  0  0  0
  5  4  1  0  0  0  0
  5 25  1  0  0  0  0
  6  5  2  0  0  0  0
  7  8  2  0  0  0  0
  7  6  1  0  0  0  0
  8 20  1  0  0  0  0
  9 10  2  0  0  0  0
  9  8  1  0  0  0  0
 11  9  1  0  0  0  0
 12 19  1  0  0  0  0
 12 11  2  0  0  0  0
 13 12  1  0  0  0  0
 14 13  2  0  0  0  0
 14 15  1  0  0  0  0
 15 16  2  0  0  0  0
 16 11  1  0  0  0  0
 16 17  1  0  0  0  0
 17  7  1  0  0  0  0
 18 28  1  0  0  0  0
 18 14  1  0  0  0  0
 19 29  1  0  0  0  0
 21 31  1  0  0  0  0
 22 32  1  0  0  0  0
 23  1  1  0  0  0  0
 24  2  1  0  0  0  0
 26 13  1  0  0  0  0
 27 15  1  0  0  0  0
 30 20  1  0  0  0  0
M  END
>  <Pose>
4

>  <Score>
-5.90

$$$$

 OpenBabel10152114563D

 32 34  0  0  0  0  0  0  0  0999 V2000
  -18.1400   -8.3210   12.0550 C   0  0  0  0  0  0  0  0  0  0  0  0
  -18.4400   -9.6020   12.5310 C   0  0  0  0  0  0  0  0  0  0  0  0
  -18.7880  -10.5940   11.6240 C   0  0  0  0  0  0  0  0  0  0  0  0
  -18.8470  -10.3120   10.2610 C   0  0  0  0  0  0  0  0  0  0  0  0
  -18.5520   -9.0440    9.7780 C   0  0  0  0  0  0  0  0  0  0  0  0
  -18.1810   -8.0360   10.6770 C   0  0  0  0  0  0  0  0  0  0  0  0
  -17.8280   -6.6950   10.1810 C   0  0  0  0  0  0  0  0  0  0  0  0
  -18.6060   -5.6170   10.4050 C   0  0  0  0  0  0  0  0  0  0  0  0
  -18.1810   -4.3190    9.8140 C   0  0  0  0  0  0  0  0  0  0  0  0
  -18.8270   -3.2820    9.9430 O   0  0  0  0  0  0  0  0  0  0  0  0
  -16.9310   -4.3090    9.0470 C   0  0  0  0  0  0  0  0  0  0  0  0
  -16.4510   -3.1390    8.4450 C   0  0  0  0  0  0  0  0  0  0  0  0
  -15.2590   -3.1560    7.7250 C   0  0  0  0  0  0  0  0  0  0  0  0
  -14.5510   -4.3490    7.6140 C   0  0  0  0  0  0  0  0  0  0  0  0
  -15.0190   -5.5190    8.2080 C   0  0  0  0  0  0  0  0  0  0  0  0
  -16.2160   -5.4960    8.9250 C   0  0  0  0  0  0  0  0  0  0  0  0
  -16.6350   -6.6790    9.4770 O   0  0  0  0  0  0  0  0  0  0  0  0
  -13.3790   -4.4150    6.9200 O   0  0  0  0  0  0  0  0  0  0  0  0
  -17.1050   -1.9380    8.5210 O   0  0  0  0  0  0  0  0  0  0  0  0
  -19.7750   -5.6270   11.1460 O   0  0  0  0  0  0  0  0  0  0  0  0
  -19.1930  -11.2950    9.3780 O   0  0  0  0  0  0  0  0  0  0  0  0
  -19.0790  -11.8680   12.0230 O   0  0  0  0  0  0  0  0  0  0  0  0
  -17.8740   -7.5410   12.7670 H   0  0  0  0  0  0  0  0  0  0  0  0
  -18.3960   -9.7980   13.5970 H   0  0  0  0  0  0  0  0  0  0  0  0
  -18.6050   -8.8530    8.7100 H   0  0  0  0  0  0  0  0  0  0  0  0
  -14.9040   -2.2390    7.2640 H   0  0  0  0  0  0  0  0  0  0  0  0
  -14.4520   -6.4410    8.1100 H   0  0  0  0  0  0  0  0  0  0  0  0
  -12.8330   -5.1280    7.2940 H   0  0  0  0  0  0  0  0  0  0  0  0
  -16.7110   -1.4230    9.2630 H   0  0  0  0  0  0  0  0  0  0  0  0
  -20.5120   -5.9040   10.5770 H   0  0  0  0  0  0  0  0  0  0  0  0
  -20.1160  -11.0890    9.1260 H   0  0  0  0  0  0  0  0  0  0  0  0
  -20.0020  -11.8900   12.3310 H   0  0  0  0  0  0  0  0  0  0  0  0
  1  2  1  0  0  0  0
  1 23  1  0  0  0  0
  2 24  1  0  0  0  0
  3 22  1  0  0  0  0
  3  2  2  0  0  0  0
  4  3  1  0  0  0  0
  5  4  2  0  0  0  0
  5  6  1  0  0  0  0
  6  1  2  0  0  0  0
  7  8  2  0  0  0  0
  7  6  1  0  0  0  0
  8 20  1  0  0  0  0
  9 10  2  0  0  0  0
  9  8  1  0  0  0  0
 11  9  1  0  0  0  0
 12 19  1  0  0  0  0
 12 11  2  0  0  0  0
 13 12  1  0  0  0  0
 14 13  2  0  0  0  0
 14 15  1  0  0  0  0
 15 16  2  0  0  0  0
 16 11  1  0  0  0  0
 16 17  1  0  0  0  0
 17  7  1  0  0  0  0
 18 28  1  0  0  0  0
 18 14  1  0  0  0  0
 19 29  1  0  0  0  0
 21  4  1  0  0  0  0
 22 32  1  0  0  0  0
 25  5  1  0  0  0  0
 26 13  1  0  0  0  0
 27 15  1  0  0  0  0
 30 20  1  0  0  0  0
 31 21  1  0  0  0  0
M  END
>  <Pose>
1

>  <Score>
-5.39

$$$$
