
     RDKit          3D

 19 20  0  0  0  0  0  0  0  0999 V2000
   -0.1687   27.6448    8.7151 N   0  0  0  0  0  0  0  0  0  0  0  0
   -1.1577   28.3707    9.2955 C   0  0  0  0  0  0  0  0  0  0  0  0
   -1.1423   29.5961    9.0050 N   0  0  0  0  0  0  0  0  0  0  0  0
   -0.1166   29.7762    8.1908 C   0  0  0  0  0  0  0  0  0  0  0  0
    0.3471   30.9373    7.5771 C   0  0  0  0  0  0  0  0  0  0  0  0
    1.4280   30.7704    6.8001 N   0  0  0  0  0  0  0  0  0  0  0  0
    1.9894   29.5425    6.6563 C   0  0  0  0  0  0  0  0  0  0  0  0
    1.6040   28.4056    7.2057 N   0  0  0  0  0  0  0  0  0  0  0  0
    0.5199   28.5744    7.9845 C   0  0  0  0  0  0  0  0  0  0  0  0
   -0.1414   32.1719    7.6643 N   0  0  0  0  0  0  0  0  0  0  0  0
    0.1388   26.2640    8.7976 C   0  0  0  0  0  0  0  0  0  0  0  0
    2.1189   26.2911   10.2354 C   0  0  0  0  0  0  0  0  0  0  0  0
    0.7019   25.8387   10.1085 C   0  0  0  0  0  0  0  0  0  0  0  0
    0.4789   24.5106   10.2654 O   0  0  0  0  0  0  0  0  0  0  0  0
    1.2651   23.8364   11.1513 C   0  0  0  0  0  0  0  0  0  0  0  0
    2.0318   22.4361   10.2914 P   0  0  0  0  0  0  0  0  0  0  0  0
    1.2850   21.1536   10.5979 O   0  0  0  0  0  0  0  0  0  0  0  0
    3.6551   22.2748   10.6417 O   0  0  0  0  0  0  0  0  0  0  0  0
    1.8830   22.7316    8.6269 O   0  0  0  0  0  0  0  0  0  0  0  0
 12 13  1  0
 13 11  1  0
 11  1  1  0
  1  2  1  0
  2  3  2  0
  3  4  1  0
  4  5  2  0
  5  6  1  0
  6  7  2  0
  7  8  1  0
  8  9  2  0
  5 10  1  0
 13 14  1  0
 14 15  1  0
 15 16  1  0
 16 17  2  0
 16 18  1  0
 16 19  1  0
  9  1  1  0
  9  4  1  0
M  END
>  <minimizedAffinity>  (1) 
-5.97664

>  <minimizedRMSD>  (1) 
0.94692

>  <RMSDvsScaffold>  (1) 
0.4523237137272379

$$$$

     RDKit          3D

 19 20  0  0  0  0  0  0  0  0999 V2000
   -0.3214   27.1568    8.2456 N   0  0  0  0  0  0  0  0  0  0  0  0
   -1.2452   27.9378    8.8676 C   0  0  0  0  0  0  0  0  0  0  0  0
   -1.0531   29.1813    8.7297 N   0  0  0  0  0  0  0  0  0  0  0  0
    0.0352   29.3104    7.9905 C   0  0  0  0  0  0  0  0  0  0  0  0
    0.6818   30.4607    7.5421 C   0  0  0  0  0  0  0  0  0  0  0  0
    1.7754   30.2396    6.7984 N   0  0  0  0  0  0  0  0  0  0  0  0
    2.1786   28.9598    6.5326 C   0  0  0  0  0  0  0  0  0  0  0  0
    1.6184   27.8425    6.9222 N   0  0  0  0  0  0  0  0  0  0  0  0
    0.5201   28.0729    7.6690 C   0  0  0  0  0  0  0  0  0  0  0  0
    0.3520   31.7320    7.7581 N   0  0  0  0  0  0  0  0  0  0  0  0
   -0.2747   25.7327    8.2140 C   0  0  0  0  0  0  0  0  0  0  0  0
    0.7318   23.6123    8.7374 C   0  0  0  0  0  0  0  0  0  0  0  0
    0.6384   25.0774    9.2095 C   0  0  0  0  0  0  0  0  0  0  0  0
    0.2476   25.1674   10.5012 O   0  0  0  0  0  0  0  0  0  0  0  0
    1.0858   25.6671   11.4349 C   0  0  0  0  0  0  0  0  0  0  0  0
    2.2334   26.9520   10.9030 P   0  0  0  0  0  0  0  0  0  0  0  0
    1.5789   28.2852   10.7729 O   0  0  0  0  0  0  0  0  0  0  0  0
    3.0427   26.5734    9.4767 O   0  0  0  0  0  0  0  0  0  0  0  0
    3.4522   27.0361   12.1125 O   0  0  0  0  0  0  0  0  0  0  0  0
 12 13  1  0
 13 11  1  0
 11  1  1  0
  1  2  1  0
  2  3  2  0
  3  4  1  0
  4  5  2  0
  5  6  1  0
  6  7  2  0
  7  8  1  0
  8  9  2  0
  5 10  1  0
 13 14  1  0
 14 15  1  0
 15 16  1  0
 16 17  2  0
 16 18  1  0
 16 19  1  0
  9  1  1  0
  9  4  1  0
M  END
>  <minimizedAffinity>  (2) 
-0.07111

>  <minimizedRMSD>  (2) 
1.34380

>  <RMSDvsScaffold>  (2) 
0.7638085165799083

$$$$

     RDKit          3D

 19 20  0  0  0  0  0  0  0  0999 V2000
   -0.2614   27.5739    8.5913 N   0  0  0  0  0  0  0  0  0  0  0  0
   -1.2135   28.3631    9.1531 C   0  0  0  0  0  0  0  0  0  0  0  0
   -1.0984   29.5917    8.8828 N   0  0  0  0  0  0  0  0  0  0  0  0
   -0.0352   29.7030    8.1039 C   0  0  0  0  0  0  0  0  0  0  0  0
    0.5357   30.8348    7.5219 C   0  0  0  0  0  0  0  0  0  0  0  0
    1.6236   30.5963    6.7786 N   0  0  0  0  0  0  0  0  0  0  0  0
    2.0965   29.3202    6.6347 C   0  0  0  0  0  0  0  0  0  0  0  0
    1.6081   28.2211    7.1526 N   0  0  0  0  0  0  0  0  0  0  0  0
    0.5136   28.4684    7.8992 C   0  0  0  0  0  0  0  0  0  0  0  0
    0.1379   32.1011    7.6135 N   0  0  0  0  0  0  0  0  0  0  0  0
   -0.0899   26.1582    8.6845 C   0  0  0  0  0  0  0  0  0  0  0  0
    0.4155   26.1005   11.1453 C   0  0  0  0  0  0  0  0  0  0  0  0
    0.8842   25.7349    9.7590 C   0  0  0  0  0  0  0  0  0  0  0  0
    0.9950   24.3486    9.7105 O   0  0  0  0  0  0  0  0  0  0  0  0
    2.2935   24.0118    9.3370 C   0  0  0  0  0  0  0  0  0  0  0  0
    2.5675   22.2332    9.4311 P   0  0  0  0  0  0  0  0  0  0  0  0
    3.5221   21.9334   10.5784 O   0  0  0  0  0  0  0  0  0  0  0  0
    3.1579   21.6265    7.9653 O   0  0  0  0  0  0  0  0  0  0  0  0
    1.1187   21.4260    9.7989 O   0  0  0  0  0  0  0  0  0  0  0  0
 12 13  1  0
 13 11  1  0
 11  1  1  0
  1  2  1  0
  2  3  2  0
  3  4  1  0
  4  5  2  0
  5  6  1  0
  6  7  2  0
  7  8  1  0
  8  9  2  0
  5 10  1  0
 13 14  1  0
 14 15  1  0
 15 16  1  0
 16 17  2  0
 16 18  1  0
 16 19  1  0
  9  1  1  0
  9  4  1  0
M  END
>  <minimizedAffinity>  (3) 
-5.71039

>  <minimizedRMSD>  (3) 
1.16543

>  <RMSDvsScaffold>  (3) 
0.5227661054429604

$$$$

     RDKit          3D

 19 20  0  0  0  0  0  0  0  0999 V2000
   -0.1184   27.6041    8.4632 N   0  0  0  0  0  0  0  0  0  0  0  0
   -1.0991   28.2714    9.1366 C   0  0  0  0  0  0  0  0  0  0  0  0
   -1.0987   29.5185    8.9558 N   0  0  0  0  0  0  0  0  0  0  0  0
   -0.0972   29.7770    8.1322 C   0  0  0  0  0  0  0  0  0  0  0  0
    0.3421   30.9936    7.6102 C   0  0  0  0  0  0  0  0  0  0  0  0
    1.3981   30.9066    6.7928 N   0  0  0  0  0  0  0  0  0  0  0  0
    1.9652   29.6865    6.5241 C   0  0  0  0  0  0  0  0  0  0  0  0
    1.6008   28.5173    6.9803 N   0  0  0  0  0  0  0  0  0  0  0  0
    0.5362   28.6134    7.8032 C   0  0  0  0  0  0  0  0  0  0  0  0
   -0.1506   32.2111    7.8207 N   0  0  0  0  0  0  0  0  0  0  0  0
    0.1522   26.2018    8.4556 C   0  0  0  0  0  0  0  0  0  0  0  0
    1.6139   25.9869   10.4508 C   0  0  0  0  0  0  0  0  0  0  0  0
    0.2681   25.6065    9.8544 C   0  0  0  0  0  0  0  0  0  0  0  0
    0.0121   24.2688    9.8489 O   0  0  0  0  0  0  0  0  0  0  0  0
   -1.0502   23.8169   10.5702 C   0  0  0  0  0  0  0  0  0  0  0  0
   -0.5540   23.3095   12.2304 P   0  0  0  0  0  0  0  0  0  0  0  0
   -0.7401   24.4183   13.2345 O   0  0  0  0  0  0  0  0  0  0  0  0
   -1.5390   22.0191   12.7624 O   0  0  0  0  0  0  0  0  0  0  0  0
    1.0422   22.7219   12.2516 O   0  0  0  0  0  0  0  0  0  0  0  0
 12 13  1  0
 13 11  1  0
 11  1  1  0
  1  2  1  0
  2  3  2  0
  3  4  1  0
  4  5  2  0
  5  6  1  0
  6  7  2  0
  7  8  1  0
  8  9  2  0
  5 10  1  0
 13 14  1  0
 14 15  1  0
 15 16  1  0
 16 17  2  0
 16 18  1  0
 16 19  1  0
  9  1  1  0
  9  4  1  0
M  END
>  <minimizedAffinity>  (4) 
-5.83819

>  <minimizedRMSD>  (4) 
2.21684

>  <RMSDvsScaffold>  (4) 
0.38256257527364096

$$$$

     RDKit          3D

 19 20  0  0  0  0  0  0  0  0999 V2000
    0.2314   27.4739    8.6110 N   0  0  0  0  0  0  0  0  0  0  0  0
   -0.7945   27.8228    9.4106 C   0  0  0  0  0  0  0  0  0  0  0  0
   -1.1091   29.0452    9.3569 N   0  0  0  0  0  0  0  0  0  0  0  0
   -0.2818   29.6047    8.4868 C   0  0  0  0  0  0  0  0  0  0  0  0
   -0.1930   30.9224    8.0564 C   0  0  0  0  0  0  0  0  0  0  0  0
    0.7702   31.1573    7.1551 N   0  0  0  0  0  0  0  0  0  0  0  0
    1.5747   30.1491    6.7249 C   0  0  0  0  0  0  0  0  0  0  0  0
    1.5430   28.8873    7.0905 N   0  0  0  0  0  0  0  0  0  0  0  0
    0.5825   28.6434    7.9920 C   0  0  0  0  0  0  0  0  0  0  0  0
   -0.9353   31.9659    8.4230 N   0  0  0  0  0  0  0  0  0  0  0  0
    0.8724   26.2246    8.3877 C   0  0  0  0  0  0  0  0  0  0  0  0
    2.0513   26.4640   10.5770 C   0  0  0  0  0  0  0  0  0  0  0  0
    2.1808   26.0433    9.1136 C   0  0  0  0  0  0  0  0  0  0  0  0
    3.2848   26.4625    8.4931 O   0  0  0  0  0  0  0  0  0  0  0  0
    4.4115   25.7835    8.3624 C   0  0  0  0  0  0  0  0  0  0  0  0
    5.2783   26.2865    6.8489 P   0  0  0  0  0  0  0  0  0  0  0  0
    5.1368   27.8044    6.7589 O   0  0  0  0  0  0  0  0  0  0  0  0
    4.6189   25.5839    5.4815 O   0  0  0  0  0  0  0  0  0  0  0  0
    6.9406   25.9827    6.9794 O   0  0  0  0  0  0  0  0  0  0  0  0
 12 13  1  0
 13 11  1  0
 11  1  1  0
  1  2  1  0
  2  3  2  0
  3  4  1  0
  4  5  2  0
  5  6  1  0
  6  7  2  0
  7  8  1  0
  8  9  2  0
  5 10  1  0
 13 14  1  0
 14 15  1  0
 15 16  1  0
 16 17  2  0
 16 18  1  0
 16 19  1  0
  9  1  1  0
  9  4  1  0
M  END
>  <minimizedAffinity>  (5) 
-5.09564

>  <minimizedRMSD>  (5) 
1.29452

>  <RMSDvsScaffold>  (5) 
0.6511503413191146

$$$$

     RDKit          3D

 19 20  0  0  0  0  0  0  0  0999 V2000
    0.6565   27.6439    9.5368 N   0  0  0  0  0  0  0  0  0  0  0  0
   -0.3270   28.4627   10.0074 C   0  0  0  0  0  0  0  0  0  0  0  0
   -0.4494   29.5454    9.3749 N   0  0  0  0  0  0  0  0  0  0  0  0
    0.4627   29.5255    8.4178 C   0  0  0  0  0  0  0  0  0  0  0  0
    0.7562   30.4741    7.4384 C   0  0  0  0  0  0  0  0  0  0  0  0
    1.7542   30.1411    6.6118 N   0  0  0  0  0  0  0  0  0  0  0  0
    2.4041   28.9436    6.7633 C   0  0  0  0  0  0  0  0  0  0  0  0
    2.1781   28.0154    7.6565 N   0  0  0  0  0  0  0  0  0  0  0  0
    1.1710   28.3582    8.4858 C   0  0  0  0  0  0  0  0  0  0  0  0
    0.1736   31.6526    7.2287 N   0  0  0  0  0  0  0  0  0  0  0  0
    1.0484   26.3595   10.0213 C   0  0  0  0  0  0  0  0  0  0  0  0
   -0.2833   24.9101    8.5073 C   0  0  0  0  0  0  0  0  0  0  0  0
   -0.0999   25.3679    9.9400 C   0  0  0  0  0  0  0  0  0  0  0  0
   -1.2490   25.9429   10.4230 O   0  0  0  0  0  0  0  0  0  0  0  0
   -2.0526   25.1238   11.1825 C   0  0  0  0  0  0  0  0  0  0  0  0
   -1.4160   24.7615   12.8189 P   0  0  0  0  0  0  0  0  0  0  0  0
   -2.5870   24.5867   13.7747 O   0  0  0  0  0  0  0  0  0  0  0  0
   -0.4912   23.3751   12.8982 O   0  0  0  0  0  0  0  0  0  0  0  0
   -0.5694   26.1320   13.3604 O   0  0  0  0  0  0  0  0  0  0  0  0
 12 13  1  0
 13 11  1  0
 11  1  1  0
  1  2  1  0
  2  3  2  0
  3  4  1  0
  4  5  2  0
  5  6  1  0
  6  7  2  0
  7  8  1  0
  8  9  2  0
  5 10  1  0
 13 14  1  0
 14 15  1  0
 15 16  1  0
 16 17  2  0
 16 18  1  0
 16 19  1  0
  9  1  1  0
  9  4  1  0
M  END
>  <minimizedAffinity>  (6) 
-5.74657

>  <minimizedRMSD>  (6) 
2.31200

>  <RMSDvsScaffold>  (6) 
0.8141302186996873

$$$$

     RDKit          3D

 19 20  0  0  0  0  0  0  0  0999 V2000
    0.7874   28.0855    9.4788 N   0  0  0  0  0  0  0  0  0  0  0  0
   -0.2244   28.7355   10.1085 C   0  0  0  0  0  0  0  0  0  0  0  0
   -0.5499   29.8364    9.5764 N   0  0  0  0  0  0  0  0  0  0  0  0
    0.2448   29.9923    8.5325 C   0  0  0  0  0  0  0  0  0  0  0  0
    0.3090   31.0305    7.6032 C   0  0  0  0  0  0  0  0  0  0  0  0
    1.2444   30.8749    6.6541 N   0  0  0  0  0  0  0  0  0  0  0  0
    2.0446   29.7692    6.6435 C   0  0  0  0  0  0  0  0  0  0  0  0
    2.0317   28.7677    7.4836 N   0  0  0  0  0  0  0  0  0  0  0  0
    1.0923   28.9231    8.4374 C   0  0  0  0  0  0  0  0  0  0  0  0
   -0.4281   32.1345    7.5422 N   0  0  0  0  0  0  0  0  0  0  0  0
    1.4168   26.8344    9.7904 C   0  0  0  0  0  0  0  0  0  0  0  0
   -0.5906   26.6404   11.2727 C   0  0  0  0  0  0  0  0  0  0  0  0
    0.4347   25.8870   10.4495 C   0  0  0  0  0  0  0  0  0  0  0  0
    1.0853   24.9982   11.2722 O   0  0  0  0  0  0  0  0  0  0  0  0
    1.2270   23.7228   10.8140 C   0  0  0  0  0  0  0  0  0  0  0  0
   -0.2939   22.9585   10.2140 P   0  0  0  0  0  0  0  0  0  0  0  0
   -0.6170   23.4386    8.8375 O   0  0  0  0  0  0  0  0  0  0  0  0
   -0.1485   21.2702   10.1840 O   0  0  0  0  0  0  0  0  0  0  0  0
   -1.5878   23.3042   11.2722 O   0  0  0  0  0  0  0  0  0  0  0  0
 12 13  1  0
 13 11  1  0
 11  1  1  0
  1  2  1  0
  2  3  2  0
  3  4  1  0
  4  5  2  0
  5  6  1  0
  6  7  2  0
  7  8  1  0
  8  9  2  0
  5 10  1  0
 13 14  1  0
 14 15  1  0
 15 16  1  0
 16 17  2  0
 16 18  1  0
 16 19  1  0
  9  1  1  0
  9  4  1  0
M  END
>  <minimizedAffinity>  (7) 
-5.22347

>  <minimizedRMSD>  (7) 
3.26475

>  <RMSDvsScaffold>  (7) 
0.6442026730773478

$$$$

     RDKit          3D

 19 20  0  0  0  0  0  0  0  0999 V2000
    0.0146   27.6863    8.8171 N   0  0  0  0  0  0  0  0  0  0  0  0
   -0.9696   28.3552    9.4397 C   0  0  0  0  0  0  0  0  0  0  0  0
   -1.0369   29.5953    9.1387 N   0  0  0  0  0  0  0  0  0  0  0  0
   -0.0645   29.8107    8.2712 C   0  0  0  0  0  0  0  0  0  0  0  0
    0.3087   30.9874    7.6234 C   0  0  0  0  0  0  0  0  0  0  0  0
    1.3539   30.8662    6.7925 N   0  0  0  0  0  0  0  0  0  0  0  0
    1.9682   29.6573    6.6315 C   0  0  0  0  0  0  0  0  0  0  0  0
    1.6681   28.5156    7.2087 N   0  0  0  0  0  0  0  0  0  0  0  0
    0.6183   28.6491    8.0398 C   0  0  0  0  0  0  0  0  0  0  0  0
   -0.2366   32.1969    7.7270 N   0  0  0  0  0  0  0  0  0  0  0  0
    0.4027   26.2913    8.8924 C   0  0  0  0  0  0  0  0  0  0  0  0
    1.1575   24.7935   10.6950 C   0  0  0  0  0  0  0  0  0  0  0  0
    1.4685   26.0610    9.9810 C   0  0  0  0  0  0  0  0  0  0  0  0
    2.7201   26.2413    9.5534 O   0  0  0  0  0  0  0  0  0  0  0  0
    3.2701   25.5494    8.5554 C   0  0  0  0  0  0  0  0  0  0  0  0
    4.6808   26.4486    7.8732 P   0  0  0  0  0  0  0  0  0  0  0  0
    4.7023   26.3270    6.3425 O   0  0  0  0  0  0  0  0  0  0  0  0
    4.6941   28.0832    8.2891 O   0  0  0  0  0  0  0  0  0  0  0  0
    6.1513   25.7983    8.3951 O   0  0  0  0  0  0  0  0  0  0  0  0
 12 13  1  0
 13 11  1  0
 11  1  1  0
  1  2  1  0
  2  3  2  0
  3  4  1  0
  4  5  2  0
  5  6  1  0
  6  7  2  0
  7  8  1  0
  8  9  2  0
  5 10  1  0
 13 14  1  0
 14 15  1  0
 15 16  1  0
 16 17  2  0
 16 18  1  0
 16 19  1  0
  9  1  1  0
  9  4  1  0
M  END
>  <minimizedAffinity>  (8) 
-6.29610

>  <minimizedRMSD>  (8) 
1.54253

>  <RMSDvsScaffold>  (8) 
0.3712376570338742

$$$$

     RDKit          3D

 19 20  0  0  0  0  0  0  0  0999 V2000
   -0.0159   27.7119    8.6218 N   0  0  0  0  0  0  0  0  0  0  0  0
   -1.0175   28.3432    9.2922 C   0  0  0  0  0  0  0  0  0  0  0  0
   -1.0902   29.5814    9.0712 N   0  0  0  0  0  0  0  0  0  0  0  0
   -0.1211   29.8685    8.2195 C   0  0  0  0  0  0  0  0  0  0  0  0
    0.2405   31.0892    7.6493 C   0  0  0  0  0  0  0  0  0  0  0  0
    1.2867   31.0286    6.8132 N   0  0  0  0  0  0  0  0  0  0  0  0
    1.9143   29.8372    6.5730 C   0  0  0  0  0  0  0  0  0  0  0  0
    1.6229   28.6677    7.0746 N   0  0  0  0  0  0  0  0  0  0  0  0
    0.5707   28.7293    7.9155 C   0  0  0  0  0  0  0  0  0  0  0  0
   -0.3140   32.2836    7.8293 N   0  0  0  0  0  0  0  0  0  0  0  0
    0.3447   26.3233    8.6438 C   0  0  0  0  0  0  0  0  0  0  0  0
    2.4803   26.5063    9.8030 C   0  0  0  0  0  0  0  0  0  0  0  0
    1.1130   25.9195    9.8877 C   0  0  0  0  0  0  0  0  0  0  0  0
    1.0033   24.6003   10.0726 O   0  0  0  0  0  0  0  0  0  0  0  0
    0.5275   24.0924   11.2193 C   0  0  0  0  0  0  0  0  0  0  0  0
   -1.2840   23.9805   11.3146 P   0  0  0  0  0  0  0  0  0  0  0  0
   -1.8818   23.5202   10.0096 O   0  0  0  0  0  0  0  0  0  0  0  0
   -1.7196   22.7973   12.4740 O   0  0  0  0  0  0  0  0  0  0  0  0
   -1.9840   25.4214   11.8352 O   0  0  0  0  0  0  0  0  0  0  0  0
 12 13  1  0
 13 11  1  0
 11  1  1  0
  1  2  1  0
  2  3  2  0
  3  4  1  0
  4  5  2  0
  5  6  1  0
  6  7  2  0
  7  8  1  0
  8  9  2  0
  5 10  1  0
 13 14  1  0
 14 15  1  0
 15 16  1  0
 16 17  2  0
 16 18  1  0
 16 19  1  0
  9  1  1  0
  9  4  1  0
M  END
>  <minimizedAffinity>  (9) 
-6.24476

>  <minimizedRMSD>  (9) 
0.97217

>  <RMSDvsScaffold>  (9) 
0.37265014155371007

$$$$

     RDKit          3D

 19 20  0  0  0  0  0  0  0  0999 V2000
    1.0342   27.6051    9.3521 N   0  0  0  0  0  0  0  0  0  0  0  0
    0.0537   28.3180    9.9781 C   0  0  0  0  0  0  0  0  0  0  0  0
   -0.2069   29.4252    9.4403 N   0  0  0  0  0  0  0  0  0  0  0  0
    0.5962   29.5346    8.3954 C   0  0  0  0  0  0  0  0  0  0  0  0
    0.7188   30.5621    7.4605 C   0  0  0  0  0  0  0  0  0  0  0  0
    1.6431   30.3547    6.5143 N   0  0  0  0  0  0  0  0  0  0  0  0
    2.3833   29.2030    6.5125 C   0  0  0  0  0  0  0  0  0  0  0  0
    2.3162   28.2051    7.3582 N   0  0  0  0  0  0  0  0  0  0  0  0
    1.3841   28.4210    8.3073 C   0  0  0  0  0  0  0  0  0  0  0  0
    0.0405   31.7051    7.3950 N   0  0  0  0  0  0  0  0  0  0  0  0
    1.5770   26.3258    9.6834 C   0  0  0  0  0  0  0  0  0  0  0  0
    0.1028   24.7719    8.3739 C   0  0  0  0  0  0  0  0  0  0  0  0
    0.5750   25.2147    9.7410 C   0  0  0  0  0  0  0  0  0  0  0  0
   -0.4959   25.5588   10.5612 O   0  0  0  0  0  0  0  0  0  0  0  0
   -1.7070   25.0932   10.0138 C   0  0  0  0  0  0  0  0  0  0  0  0
   -2.9365   24.7803   11.2766 P   0  0  0  0  0  0  0  0  0  0  0  0
   -3.1074   25.9552   12.1828 O   0  0  0  0  0  0  0  0  0  0  0  0
   -4.4259   24.3524   10.5579 O   0  0  0  0  0  0  0  0  0  0  0  0
   -2.4509   23.4218   12.1828 O   0  0  0  0  0  0  0  0  0  0  0  0
 12 13  1  0
 13 11  1  0
 11  1  1  0
  1  2  1  0
  2  3  2  0
  3  4  1  0
  4  5  2  0
  5  6  1  0
  6  7  2  0
  7  8  1  0
  8  9  2  0
  5 10  1  0
 13 14  1  0
 14 15  1  0
 15 16  1  0
 16 17  2  0
 16 18  1  0
 16 19  1  0
  9  1  1  0
  9  4  1  0
M  END
>  <minimizedAffinity>  (10) 
-5.44178

>  <minimizedRMSD>  (10) 
1.95851

>  <RMSDvsScaffold>  (10) 
0.7177091569709836

$$$$

     RDKit          3D

 19 20  0  0  0  0  0  0  0  0999 V2000
   -0.1999   27.6630    8.6601 N   0  0  0  0  0  0  0  0  0  0  0  0
   -1.1772   28.3734    9.2622 C   0  0  0  0  0  0  0  0  0  0  0  0
   -1.1651   29.6157    9.0050 N   0  0  0  0  0  0  0  0  0  0  0  0
   -0.1437   29.8090    8.1892 C   0  0  0  0  0  0  0  0  0  0  0  0
    0.3233   30.9840    7.5966 C   0  0  0  0  0  0  0  0  0  0  0  0
    1.3923   30.8372    6.8087 N   0  0  0  0  0  0  0  0  0  0  0  0
    1.9512   29.5955    6.6311 C   0  0  0  0  0  0  0  0  0  0  0  0
    1.5673   28.4639    7.1521 N   0  0  0  0  0  0  0  0  0  0  0  0
    0.4880   28.6221    7.9454 C   0  0  0  0  0  0  0  0  0  0  0  0
   -0.1639   32.2206    7.7214 N   0  0  0  0  0  0  0  0  0  0  0  0
    0.0524   26.2645    8.7537 C   0  0  0  0  0  0  0  0  0  0  0  0
    2.3801   25.6248    9.3695 C   0  0  0  0  0  0  0  0  0  0  0  0
    0.9872   25.9196    9.9528 C   0  0  0  0  0  0  0  0  0  0  0  0
    0.5198   25.1025   10.7599 O   0  0  0  0  0  0  0  0  0  0  0  0
    0.0844   24.3369   11.6293 C   0  0  0  0  0  0  0  0  0  0  0  0
   -1.7748   24.3482   11.6401 P   0  0  0  0  0  0  0  0  0  0  0  0
   -2.2060   23.6855   12.9156 O   0  0  0  0  0  0  0  0  0  0  0  0
   -2.3154   25.9456   11.5505 O   0  0  0  0  0  0  0  0  0  0  0  0
   -2.3183   23.4347   10.3425 O   0  0  0  0  0  0  0  0  0  0  0  0
 12 13  1  0
 13 11  1  0
 11  1  1  0
  1  2  1  0
  2  3  2  0
  3  4  1  0
  4  5  2  0
  5  6  1  0
  6  7  2  0
  7  8  1  0
  8  9  2  0
  5 10  1  0
 13 14  1  0
 14 15  1  0
 15 16  1  0
 16 17  2  0
 16 18  1  0
 16 19  1  0
  9  1  1  0
  9  4  1  0
M  END
>  <minimizedAffinity>  (11) 
-6.22389

>  <minimizedRMSD>  (11) 
1.90321

>  <RMSDvsScaffold>  (11) 
0.45603676057967113

$$$$

     RDKit          3D

 19 20  0  0  0  0  0  0  0  0999 V2000
   -0.1152   27.8930    8.7036 N   0  0  0  0  0  0  0  0  0  0  0  0
   -1.1249   28.4682    9.3987 C   0  0  0  0  0  0  0  0  0  0  0  0
   -1.2499   29.7101    9.2018 N   0  0  0  0  0  0  0  0  0  0  0  0
   -0.3059   30.0481    8.3400 C   0  0  0  0  0  0  0  0  0  0  0  0
   -0.0004   31.2871    7.7875 C   0  0  0  0  0  0  0  0  0  0  0  0
    1.0336   31.2837    6.9333 N   0  0  0  0  0  0  0  0  0  0  0  0
    1.7018   30.1261    6.6610 C   0  0  0  0  0  0  0  0  0  0  0  0
    1.4627   28.9332    7.1477 N   0  0  0  0  0  0  0  0  0  0  0  0
    0.4267   28.9341    8.0040 C   0  0  0  0  0  0  0  0  0  0  0  0
   -0.5962   32.4593    7.9962 N   0  0  0  0  0  0  0  0  0  0  0  0
    0.3242   26.5326    8.6707 C   0  0  0  0  0  0  0  0  0  0  0  0
    1.5801   25.3529   10.4812 C   0  0  0  0  0  0  0  0  0  0  0  0
    1.6580   26.3589    9.3366 C   0  0  0  0  0  0  0  0  0  0  0  0
    2.6140   25.8771    8.4690 O   0  0  0  0  0  0  0  0  0  0  0  0
    3.8946   26.3066    8.6720 C   0  0  0  0  0  0  0  0  0  0  0  0
    4.5929   27.2610    7.2996 P   0  0  0  0  0  0  0  0  0  0  0  0
    3.7617   27.1210    6.0500 O   0  0  0  0  0  0  0  0  0  0  0  0
    6.1488   26.6637    6.9031 O   0  0  0  0  0  0  0  0  0  0  0  0
    4.8055   28.8869    7.6761 O   0  0  0  0  0  0  0  0  0  0  0  0
 12 13  1  0
 13 11  1  0
 11  1  1  0
  1  2  1  0
  2  3  2  0
  3  4  1  0
  4  5  2  0
  5  6  1  0
  6  7  2  0
  7  8  1  0
  8  9  2  0
  5 10  1  0
 13 14  1  0
 14 15  1  0
 15 16  1  0
 16 17  2  0
 16 18  1  0
 16 19  1  0
  9  1  1  0
  9  4  1  0
M  END
>  <minimizedAffinity>  (12) 
-5.75312

>  <minimizedRMSD>  (12) 
1.29676

>  <RMSDvsScaffold>  (12) 
0.6177748554287396

$$$$

     RDKit          3D

 19 20  0  0  0  0  0  0  0  0999 V2000
   -0.0316   27.7077    8.4691 N   0  0  0  0  0  0  0  0  0  0  0  0
   -1.0170   28.3042    9.1589 C   0  0  0  0  0  0  0  0  0  0  0  0
   -1.0848   29.5646    8.9897 N   0  0  0  0  0  0  0  0  0  0  0  0
   -0.1123   29.8737    8.1496 C   0  0  0  0  0  0  0  0  0  0  0  0
    0.2601   31.1109    7.6291 C   0  0  0  0  0  0  0  0  0  0  0  0
    1.3069   31.0752    6.7902 N   0  0  0  0  0  0  0  0  0  0  0  0
    1.9241   29.8880    6.5028 C   0  0  0  0  0  0  0  0  0  0  0  0
    1.6208   28.6997    6.9587 N   0  0  0  0  0  0  0  0  0  0  0  0
    0.5719   28.7372    7.7990 C   0  0  0  0  0  0  0  0  0  0  0  0
   -0.2818   32.3027    7.8551 N   0  0  0  0  0  0  0  0  0  0  0  0
    0.3293   26.3122    8.4256 C   0  0  0  0  0  0  0  0  0  0  0  0
    0.9833   26.2947   10.8468 C   0  0  0  0  0  0  0  0  0  0  0  0
    1.3954   25.9551    9.4350 C   0  0  0  0  0  0  0  0  0  0  0  0
    2.5973   26.5718    9.1897 O   0  0  0  0  0  0  0  0  0  0  0  0
    3.3710   25.7321    8.3973 C   0  0  0  0  0  0  0  0  0  0  0  0
    4.7493   26.5775    7.6138 P   0  0  0  0  0  0  0  0  0  0  0  0
    6.0420   26.0346    8.1999 O   0  0  0  0  0  0  0  0  0  0  0  0
    4.7165   26.2093    5.9673 O   0  0  0  0  0  0  0  0  0  0  0  0
    4.6459   28.2310    7.8943 O   0  0  0  0  0  0  0  0  0  0  0  0
 12 13  1  0
 13 11  1  0
 11  1  1  0
  1  2  1  0
  2  3  2  0
  3  4  1  0
  4  5  2  0
  5  6  1  0
  6  7  2  0
  7  8  1  0
  8  9  2  0
  5 10  1  0
 13 14  1  0
 14 15  1  0
 15 16  1  0
 16 17  2  0
 16 18  1  0
 16 19  1  0
  9  1  1  0
  9  4  1  0
M  END
>  <minimizedAffinity>  (13) 
-6.02274

>  <minimizedRMSD>  (13) 
0.92352

>  <RMSDvsScaffold>  (13) 
0.3637721979481117

$$$$
