
 OpenBabel10142115503D

 48 47  0  0  1  0  0  0  0  0999 V2000
   38.8750   20.3850   29.3340 C   0  0  0  0  0  0  0  0  0  0  0  0
   38.3900   20.4880   30.6270 C   0  0  0  0  0  0  0  0  0  0  0  0
   38.3230   19.4130   31.5550 C   0  0  0  0  0  0  0  0  0  0  0  0
   38.7710   18.1290   31.1700 C   0  0  0  0  0  0  0  0  0  0  0  0
   39.2580   18.0200   29.8790 C   0  0  0  0  0  0  0  0  0  0  0  0
   39.3140   19.0970   28.9820 C   0  0  0  0  0  0  0  0  0  0  0  0
   39.8830   18.5730   27.7310 C   0  0  0  0  0  0  0  0  0  0  0  0
   40.1150   17.2590   27.9760 C   0  0  0  0  0  0  0  0  0  0  0  0
   39.7590   16.9380   29.2070 N   0  0  0  0  0  0  0  0  0  0  0  0
   40.1690   19.2750   26.4340 C   0  0  0  0  0  0  0  0  0  0  0  0
   41.2710   18.5450   25.6530 C   0  0  1  0  0  0  0  0  0  0  0  0
   41.2740   17.0850   25.7930 N   0  0  0  0  0  0  0  0  0  0  0  0
   40.6930   16.3910   26.9290 C   0  0  2  0  0  0  0  0  0  0  0  0
   42.1750   18.3000   23.4020 N   0  0  0  0  0  0  0  0  0  0  0  0
   42.4720   16.8980   23.6920 C   0  0  0  0  0  0  0  0  0  0  0  0
   41.8560   16.2880   24.8710 C   0  0  0  0  0  0  0  0  0  0  0  0
   42.5000   18.8570   22.1010 C   0  0  0  0  0  0  0  0  0  0  0  0
   41.9000   15.0870   24.9510 O   0  0  0  0  0  0  0  0  0  0  0  0
   39.5210   15.4180   26.5530 C   0  0  0  0  0  0  0  0  0  0  0  0
   39.5020   14.1030   26.9880 C   0  0  0  0  0  0  0  0  0  0  0  0
   38.4310   13.2880   26.6180 C   0  0  0  0  0  0  0  0  0  0  0  0
   37.4130   13.7490   25.8440 C   0  0  0  0  0  0  0  0  0  0  0  0
   37.3820   15.0450   25.3830 C   0  0  0  0  0  0  0  0  0  0  0  0
   38.4350   15.8570   25.7460 C   0  0  0  0  0  0  0  0  0  0  0  0
   38.2560   11.9700   26.9590 O   0  0  0  0  0  0  0  0  0  0  0  0
   36.8690   11.7730   26.5550 C   0  0  0  0  0  0  0  0  0  0  0  0
   36.4880   12.7720   25.6160 O   0  0  0  0  0  0  0  0  0  0  0  0
   41.6190   19.0960   24.3070 C   0  0  0  0  0  0  0  0  0  0  0  0
   41.3480   20.2940   24.1270 O   0  0  0  0  0  0  0  0  0  0  0  0
   38.9110   21.1860   28.6840 H   0  0  0  0  0  0  0  0  0  0  0  0
   38.0530   21.4110   30.9400 H   0  0  0  0  0  0  0  0  0  0  0  0
   39.4150   20.3740   30.5940 H   0  0  0  0  0  0  0  0  0  0  0  0
   37.9490   19.5690   32.5040 H   0  0  0  0  0  0  0  0  0  0  0  0
   38.7380   17.3220   31.8130 H   0  0  0  0  0  0  0  0  0  0  0  0
   40.4880   20.2750   26.6380 H   0  0  0  0  0  0  0  0  0  0  0  0
   39.2770   19.2820   25.8430 H   0  0  0  0  0  0  0  0  0  0  0  0
   42.1520   18.8220   26.1940 H   0  0  0  0  0  0  0  0  0  0  0  0
   41.5540   15.8720   27.2950 H   0  0  0  0  0  0  0  0  0  0  0  0
   43.5320   16.8160   23.8110 H   0  0  0  0  0  0  0  0  0  0  0  0
   42.0510   16.3620   22.8670 H   0  0  0  0  0  0  0  0  0  0  0  0
   42.2120   19.8870   22.0730 H   0  0  0  0  0  0  0  0  0  0  0  0
   41.9730   18.3190   21.3410 H   0  0  0  0  0  0  0  0  0  0  0  0
   43.5530   18.7760   21.9310 H   0  0  0  0  0  0  0  0  0  0  0  0
   40.2660   13.7330   27.5740 H   0  0  0  0  0  0  0  0  0  0  0  0
   36.6090   15.3920   24.7940 H   0  0  0  0  0  0  0  0  0  0  0  0
   38.4350   16.8350   25.4150 H   0  0  0  0  0  0  0  0  0  0  0  0
   36.2540   11.0200   26.9000 H   0  0  0  0  0  0  0  0  0  0  0  0
   37.0510   12.4430   25.7920 H   0  0  0  0  0  0  0  0  0  0  0  0
  2 31  1  0  0  0  0
  2  3  1  0  0  0  0
  3 33  1  0  0  0  0
  4  3  2  0  0  0  0
  4 34  1  0  0  0  0
  5  4  1  0  0  0  0
  6  5  2  0  0  0  0
  7  8  2  0  0  0  0
  7  6  1  0  0  0  0
  8  9  1  0  0  0  0
  9  5  1  0  0  0  0
 10 35  1  0  0  0  0
 10  7  1  0  0  0  0
 11 12  1  0  0  0  0
 11 37  1  1  0  0  0
 11 10  1  0  0  0  0
 12 13  1  0  0  0  0
 13 38  1  1  0  0  0
 13  8  1  0  0  0  0
 14 15  1  0  0  0  0
 14 28  1  0  0  0  0
 15 39  1  0  0  0  0
 15 16  1  0  0  0  0
 16 18  2  0  0  0  0
 16 12  1  0  0  0  0
 17 14  1  0  0  0  0
 19 13  1  0  0  0  0
 19 20  2  0  0  0  0
 20 44  1  0  0  0  0
 21 25  1  0  0  0  0
 21 20  1  0  0  0  0
 22 21  2  0  0  0  0
 23 24  2  0  0  0  0
 24 19  1  0  0  0  0
 26 47  1  0  0  0  0
 27 48  1  0  0  0  0
 28 11  1  0  0  0  0
 29 28  2  0  0  0  0
 30  1  1  0  0  0  0
 32  2  1  0  0  0  0
 36 10  1  0  0  0  0
 40 15  1  0  0  0  0
 41 17  1  0  0  0  0
 42 17  1  0  0  0  0
 43 17  1  0  0  0  0
 45 23  1  0  0  0  0
 46 24  1  0  0  0  0
M  END
>  <Pose>
2

>  <Score>
-3.55

$$$$

 OpenBabel10142115503D

 48 47  0  0  1  0  0  0  0  0999 V2000
   39.6830   19.4200   27.4780 C   0  0  0  0  0  0  0  0  0  0  0  0
   39.6640   20.2450   28.5910 C   0  0  0  0  0  0  0  0  0  0  0  0
   39.3680   19.8160   29.9120 C   0  0  0  0  0  0  0  0  0  0  0  0
   39.0630   18.4570   30.1540 C   0  0  0  0  0  0  0  0  0  0  0  0
   39.0800   17.6270   29.0460 C   0  0  0  0  0  0  0  0  0  0  0  0
   39.3770   18.0750   27.7500 C   0  0  0  0  0  0  0  0  0  0  0  0
   39.2870   16.9020   26.8680 C   0  0  0  0  0  0  0  0  0  0  0  0
   38.9530   15.8740   27.6880 C   0  0  0  0  0  0  0  0  0  0  0  0
   38.8350   16.2850   28.9370 N   0  0  0  0  0  0  0  0  0  0  0  0
   39.5010   16.7920   25.3850 C   0  0  0  0  0  0  0  0  0  0  0  0
   39.8960   15.3610   24.9980 C   0  0  1  0  0  0  0  0  0  0  0  0
   39.2730   14.3010   25.7990 N   0  0  0  0  0  0  0  0  0  0  0  0
   38.7690   14.5120   27.1460 C   0  0  2  0  0  0  0  0  0  0  0  0
   39.9490   13.8430   23.0900 N   0  0  0  0  0  0  0  0  0  0  0  0
   39.6430   12.7300   23.9890 C   0  0  0  0  0  0  0  0  0  0  0  0
   39.1580   13.0390   25.3350 C   0  0  0  0  0  0  0  0  0  0  0  0
   40.1290   13.6010   21.6710 C   0  0  0  0  0  0  0  0  0  0  0  0
   38.6720   12.1320   25.9620 O   0  0  0  0  0  0  0  0  0  0  0  0
   37.2310   14.2450   27.3010 C   0  0  0  0  0  0  0  0  0  0  0  0
   36.2880   15.0750   26.7140 C   0  0  0  0  0  0  0  0  0  0  0  0
   34.9340   14.7830   26.8900 C   0  0  0  0  0  0  0  0  0  0  0  0
   34.5200   13.7130   27.6190 C   0  0  0  0  0  0  0  0  0  0  0  0
   35.4130   12.8580   28.2240 C   0  0  0  0  0  0  0  0  0  0  0  0
   36.7510   13.1380   28.0540 C   0  0  0  0  0  0  0  0  0  0  0  0
   33.8770   15.4950   26.3820 O   0  0  0  0  0  0  0  0  0  0  0  0
   32.7840   14.5640   26.6360 C   0  0  0  0  0  0  0  0  0  0  0  0
   33.1580   13.6360   27.6490 O   0  0  0  0  0  0  0  0  0  0  0  0
   40.0810   15.0840   23.5400 C   0  0  0  0  0  0  0  0  0  0  0  0
   40.3460   16.0700   22.8330 O   0  0  0  0  0  0  0  0  0  0  0  0
   39.9030   19.7630   26.5300 H   0  0  0  0  0  0  0  0  0  0  0  0
   39.8810   21.2440   28.4490 H   0  0  0  0  0  0  0  0  0  0  0  0
   40.4750   19.6060   28.5810 H   0  0  0  0  0  0  0  0  0  0  0  0
   39.3760   20.4920   30.6920 H   0  0  0  0  0  0  0  0  0  0  0  0
   38.8400   18.1050   31.0980 H   0  0  0  0  0  0  0  0  0  0  0  0
   40.2810   17.4630   25.0920 H   0  0  0  0  0  0  0  0  0  0  0  0
   38.5880   17.0430   24.8870 H   0  0  0  0  0  0  0  0  0  0  0  0
   40.9150   15.3130   25.3200 H   0  0  0  0  0  0  0  0  0  0  0  0
   39.3630   13.8030   27.6840 H   0  0  0  0  0  0  0  0  0  0  0  0
   40.5380   12.1550   24.0980 H   0  0  0  0  0  0  0  0  0  0  0  0
   38.8200   12.2310   23.5200 H   0  0  0  0  0  0  0  0  0  0  0  0
   40.3450   14.5250   21.1760 H   0  0  0  0  0  0  0  0  0  0  0  0
   39.2330   13.1800   21.2640 H   0  0  0  0  0  0  0  0  0  0  0  0
   40.9410   12.9200   21.5250 H   0  0  0  0  0  0  0  0  0  0  0  0
   36.5820   15.8930   26.1590 H   0  0  0  0  0  0  0  0  0  0  0  0
   35.0960   12.0480   28.7790 H   0  0  0  0  0  0  0  0  0  0  0  0
   37.4420   12.5110   28.4960 H   0  0  0  0  0  0  0  0  0  0  0  0
   31.8720   14.5750   26.1520 H   0  0  0  0  0  0  0  0  0  0  0  0
   33.2940   14.2780   27.4860 H   0  0  0  0  0  0  0  0  0  0  0  0
  2  3  1  0  0  0  0
  3  4  2  0  0  0  0
  3 33  1  0  0  0  0
  4 34  1  0  0  0  0
  5  4  1  0  0  0  0
  6  5  2  0  0  0  0
  7  8  2  0  0  0  0
  7  6  1  0  0  0  0
  8  9  1  0  0  0  0
  9  5  1  0  0  0  0
 10  7  1  0  0  0  0
 11 37  1  1  0  0  0
 11 10  1  0  0  0  0
 11 12  1  0  0  0  0
 12 13  1  0  0  0  0
 13 19  1  0  0  0  0
 13 38  1  1  0  0  0
 13  8  1  0  0  0  0
 14 28  1  0  0  0  0
 14 15  1  0  0  0  0
 15 39  1  0  0  0  0
 15 16  1  0  0  0  0
 16 12  1  0  0  0  0
 16 18  2  0  0  0  0
 17 14  1  0  0  0  0
 19 24  1  0  0  0  0
 20 21  1  0  0  0  0
 20 19  2  0  0  0  0
 21 22  2  0  0  0  0
 23 45  1  0  0  0  0
 24 23  2  0  0  0  0
 24 46  1  0  0  0  0
 25 21  1  0  0  0  0
 28 11  1  0  0  0  0
 29 28  2  0  0  0  0
 30  1  1  0  0  0  0
 31  2  1  0  0  0  0
 32  2  1  0  0  0  0
 35 10  1  0  0  0  0
 36 10  1  0  0  0  0
 40 15  1  0  0  0  0
 41 17  1  0  0  0  0
 42 17  1  0  0  0  0
 43 17  1  0  0  0  0
 44 20  1  0  0  0  0
 47 26  1  0  0  0  0
 48 27  1  0  0  0  0
M  END
>  <Pose>
3

>  <Score>
-3.15

$$$$
