
 OpenBabel10142115503D

 48 47  0  0  1  0  0  0  0  0999 V2000
   35.1390   62.4110   28.6020 C   0  0  0  0  0  0  0  0  0  0  0  0
   34.8870   62.2920   27.2450 C   0  0  0  0  0  0  0  0  0  0  0  0
   35.0720   61.1040   26.4880 C   0  0  0  0  0  0  0  0  0  0  0  0
   35.5480   59.9360   27.1260 C   0  0  0  0  0  0  0  0  0  0  0  0
   35.8010   60.0480   28.4820 C   0  0  0  0  0  0  0  0  0  0  0  0
   35.6090   61.2330   29.2080 C   0  0  0  0  0  0  0  0  0  0  0  0
   35.9910   60.9410   30.5980 C   0  0  0  0  0  0  0  0  0  0  0  0
   36.3690   59.6380   30.5900 C   0  0  0  0  0  0  0  0  0  0  0  0
   36.2610   59.1220   29.3800 N   0  0  0  0  0  0  0  0  0  0  0  0
   35.9900   61.8350   31.8060 C   0  0  0  0  0  0  0  0  0  0  0  0
   35.8720   61.0080   33.0930 C   0  0  1  0  0  0  0  0  0  0  0  0
   36.5410   59.7030   33.0620 N   0  0  0  0  0  0  0  0  0  0  0  0
   36.8280   58.9840   31.8320 C   0  0  2  0  0  0  0  0  0  0  0  0
   36.2990   61.1340   35.4910 N   0  0  0  0  0  0  0  0  0  0  0  0
   36.6530   59.7150   35.4850 C   0  0  0  0  0  0  0  0  0  0  0  0
   36.9060   59.0690   34.1960 C   0  0  0  0  0  0  0  0  0  0  0  0
   36.3430   61.8880   36.7300 C   0  0  0  0  0  0  0  0  0  0  0  0
   37.4400   57.9890   34.2220 O   0  0  0  0  0  0  0  0  0  0  0  0
   38.3560   58.7270   31.5850 C   0  0  0  0  0  0  0  0  0  0  0  0
   38.8500   57.4530   31.3590 C   0  0  0  0  0  0  0  0  0  0  0  0
   40.2210   57.2910   31.1450 C   0  0  0  0  0  0  0  0  0  0  0  0
   41.0770   58.3460   31.1570 C   0  0  0  0  0  0  0  0  0  0  0  0
   40.6410   59.6320   31.3790 C   0  0  0  0  0  0  0  0  0  0  0  0
   39.2890   59.8010   31.5880 C   0  0  0  0  0  0  0  0  0  0  0  0
   40.8720   56.1060   30.9070 O   0  0  0  0  0  0  0  0  0  0  0  0
   42.1740   56.6020   30.4780 C   0  0  0  0  0  0  0  0  0  0  0  0
   42.3600   57.9400   30.9270 O   0  0  0  0  0  0  0  0  0  0  0  0
   35.9210   61.7620   34.3840 C   0  0  0  0  0  0  0  0  0  0  0  0
   35.6020   62.9600   34.3230 O   0  0  0  0  0  0  0  0  0  0  0  0
   34.9930   63.2890   29.1240 H   0  0  0  0  0  0  0  0  0  0  0  0
   34.5400   63.1270   26.7480 H   0  0  0  0  0  0  0  0  0  0  0  0
   34.1920   61.7960   27.8250 H   0  0  0  0  0  0  0  0  0  0  0  0
   34.8600   61.0940   25.4780 H   0  0  0  0  0  0  0  0  0  0  0  0
   35.6980   59.0530   26.6120 H   0  0  0  0  0  0  0  0  0  0  0  0
   35.1610   62.5080   31.7440 H   0  0  0  0  0  0  0  0  0  0  0  0
   36.9100   62.3800   31.8310 H   0  0  0  0  0  0  0  0  0  0  0  0
   34.8390   60.7290   33.0880 H   0  0  0  0  0  0  0  0  0  0  0  0
   36.2850   58.0790   32.0100 H   0  0  0  0  0  0  0  0  0  0  0  0
   35.8490   59.1850   35.9520 H   0  0  0  0  0  0  0  0  0  0  0  0
   37.5960   59.6760   35.9890 H   0  0  0  0  0  0  0  0  0  0  0  0
   36.0540   62.9010   36.5420 H   0  0  0  0  0  0  0  0  0  0  0  0
   37.3370   61.8680   37.1240 H   0  0  0  0  0  0  0  0  0  0  0  0
   35.6700   61.4500   37.4380 H   0  0  0  0  0  0  0  0  0  0  0  0
   38.2170   56.6380   31.3480 H   0  0  0  0  0  0  0  0  0  0  0  0
   41.2940   60.4310   31.3890 H   0  0  0  0  0  0  0  0  0  0  0  0
   38.9360   60.7560   31.7550 H   0  0  0  0  0  0  0  0  0  0  0  0
   42.8610   56.0620   29.9290 H   0  0  0  0  0  0  0  0  0  0  0  0
   42.0340   57.3860   31.1350 H   0  0  0  0  0  0  0  0  0  0  0  0
  1 30  1  0  0  0  0
  2 32  1  0  0  0  0
  3  4  2  0  0  0  0
  3  2  1  0  0  0  0
  4  5  1  0  0  0  0
  5  6  2  0  0  0  0
  5  9  1  0  0  0  0
  6  7  1  0  0  0  0
  7 10  1  0  0  0  0
  8  7  2  0  0  0  0
  8 13  1  0  0  0  0
  9  8  1  0  0  0  0
 10 36  1  0  0  0  0
 10 11  1  0  0  0  0
 11 37  1  6  0  0  0
 11 28  1  0  0  0  0
 12 11  1  0  0  0  0
 12 16  1  0  0  0  0
 13 38  1  1  0  0  0
 13 12  1  0  0  0  0
 14 17  1  0  0  0  0
 15 14  1  0  0  0  0
 15 39  1  0  0  0  0
 15 40  1  0  0  0  0
 16 18  2  0  0  0  0
 16 15  1  0  0  0  0
 17 42  1  0  0  0  0
 17 43  1  0  0  0  0
 19 24  1  0  0  0  0
 19 13  1  0  0  0  0
 20 19  2  0  0  0  0
 21 22  2  0  0  0  0
 21 20  1  0  0  0  0
 23 45  1  0  0  0  0
 23 24  2  0  0  0  0
 24 46  1  0  0  0  0
 25 21  1  0  0  0  0
 27 48  1  0  0  0  0
 28 14  1  0  0  0  0
 29 28  2  0  0  0  0
 31  2  1  0  0  0  0
 33  3  1  0  0  0  0
 34  4  1  0  0  0  0
 35 10  1  0  0  0  0
 41 17  1  0  0  0  0
 44 20  1  0  0  0  0
 47 26  1  0  0  0  0
M  END
>  <Pose>
1

>  <Score>
-4.56

$$$$

 OpenBabel10142115503D

 48 47  0  0  1  0  0  0  0  0999 V2000
   39.5630   56.6320   30.8120 C   0  0  0  0  0  0  0  0  0  0  0  0
   39.9300   55.9010   31.9300 C   0  0  0  0  0  0  0  0  0  0  0  0
   39.3410   56.0360   33.2160 C   0  0  0  0  0  0  0  0  0  0  0  0
   38.3020   56.9750   33.4140 C   0  0  0  0  0  0  0  0  0  0  0  0
   37.9300   57.7080   32.3000 C   0  0  0  0  0  0  0  0  0  0  0  0
   38.5270   57.5550   31.0400 C   0  0  0  0  0  0  0  0  0  0  0  0
   37.8600   58.5070   30.1400 C   0  0  0  0  0  0  0  0  0  0  0  0
   36.9400   59.1350   30.9160 C   0  0  0  0  0  0  0  0  0  0  0  0
   36.9770   58.6790   32.1540 N   0  0  0  0  0  0  0  0  0  0  0  0
   38.0910   58.7790   28.6810 C   0  0  0  0  0  0  0  0  0  0  0  0
   36.8320   59.3660   28.0310 C   0  0  1  0  0  0  0  0  0  0  0  0
   36.0340   60.2450   28.8940 N   0  0  0  0  0  0  0  0  0  0  0  0
   36.0660   60.1800   30.3450 C   0  0  2  0  0  0  0  0  0  0  0  0
   36.1060   60.6600   26.0960 N   0  0  0  0  0  0  0  0  0  0  0  0
   35.0810   61.2940   26.9250 C   0  0  0  0  0  0  0  0  0  0  0  0
   35.1840   61.1590   28.3780 C   0  0  0  0  0  0  0  0  0  0  0  0
   36.2280   61.0170   24.6940 C   0  0  0  0  0  0  0  0  0  0  0  0
   34.4950   61.8890   29.0450 O   0  0  0  0  0  0  0  0  0  0  0  0
   36.5540   61.5030   31.0320 C   0  0  0  0  0  0  0  0  0  0  0  0
   35.8210   62.1110   32.0380 C   0  0  0  0  0  0  0  0  0  0  0  0
   36.3110   63.2870   32.6090 C   0  0  0  0  0  0  0  0  0  0  0  0
   37.4810   63.8480   32.2040 C   0  0  0  0  0  0  0  0  0  0  0  0
   38.2470   63.2870   31.2080 C   0  0  0  0  0  0  0  0  0  0  0  0
   37.7730   62.1250   30.6410 C   0  0  0  0  0  0  0  0  0  0  0  0
   35.7150   64.0140   33.6090 O   0  0  0  0  0  0  0  0  0  0  0  0
   36.8060   64.9120   33.9690 C   0  0  0  0  0  0  0  0  0  0  0  0
   37.7480   64.9880   32.9050 O   0  0  0  0  0  0  0  0  0  0  0  0
   36.9340   59.7480   26.5880 C   0  0  0  0  0  0  0  0  0  0  0  0
   37.8190   59.1690   25.9380 O   0  0  0  0  0  0  0  0  0  0  0  0
   40.0110   56.5090   29.8910 H   0  0  0  0  0  0  0  0  0  0  0  0
   40.6870   55.2080   31.8210 H   0  0  0  0  0  0  0  0  0  0  0  0
   39.0110   55.6210   31.5550 H   0  0  0  0  0  0  0  0  0  0  0  0
   39.6690   55.4530   34.0010 H   0  0  0  0  0  0  0  0  0  0  0  0
   37.8500   57.1050   34.3320 H   0  0  0  0  0  0  0  0  0  0  0  0
   38.3460   57.8640   28.1890 H   0  0  0  0  0  0  0  0  0  0  0  0
   38.8880   59.4870   28.5860 H   0  0  0  0  0  0  0  0  0  0  0  0
   36.2010   58.5060   27.9450 H   0  0  0  0  0  0  0  0  0  0  0  0
   35.0370   59.9700   30.5480 H   0  0  0  0  0  0  0  0  0  0  0  0
   34.1380   60.8800   26.6350 H   0  0  0  0  0  0  0  0  0  0  0  0
   35.2080   62.3410   26.7480 H   0  0  0  0  0  0  0  0  0  0  0  0
   37.0250   60.4570   24.2520 H   0  0  0  0  0  0  0  0  0  0  0  0
   36.4360   62.0630   24.6090 H   0  0  0  0  0  0  0  0  0  0  0  0
   35.3110   60.7930   24.1880 H   0  0  0  0  0  0  0  0  0  0  0  0
   34.9300   61.7030   32.3590 H   0  0  0  0  0  0  0  0  0  0  0  0
   39.1340   63.7160   30.9010 H   0  0  0  0  0  0  0  0  0  0  0  0
   38.3300   61.6820   29.8930 H   0  0  0  0  0  0  0  0  0  0  0  0
   36.8840   65.4190   34.8650 H   0  0  0  0  0  0  0  0  0  0  0  0
   37.0830   64.8900   32.9760 H   0  0  0  0  0  0  0  0  0  0  0  0
  2  3  1  0  0  0  0
  3  4  2  0  0  0  0
  3 33  1  0  0  0  0
  4 34  1  0  0  0  0
  5  4  1  0  0  0  0
  6  5  2  0  0  0  0
  7  8  2  0  0  0  0
  7  6  1  0  0  0  0
  8  9  1  0  0  0  0
  9  5  1  0  0  0  0
 10  7  1  0  0  0  0
 11 37  1  6  0  0  0
 11 10  1  0  0  0  0
 11 12  1  0  0  0  0
 12 13  1  0  0  0  0
 13 38  1  1  0  0  0
 13  8  1  0  0  0  0
 13 19  1  0  0  0  0
 14 28  1  0  0  0  0
 14 15  1  0  0  0  0
 15 16  1  0  0  0  0
 16 12  1  0  0  0  0
 16 18  2  0  0  0  0
 17 14  1  0  0  0  0
 19 20  2  0  0  0  0
 20 44  1  0  0  0  0
 20 21  1  0  0  0  0
 21 25  1  0  0  0  0
 22 21  2  0  0  0  0
 24 19  1  0  0  0  0
 24 23  2  0  0  0  0
 26 47  1  0  0  0  0
 27 48  1  0  0  0  0
 28 11  1  0  0  0  0
 29 28  2  0  0  0  0
 30  1  1  0  0  0  0
 31  2  1  0  0  0  0
 32  2  1  0  0  0  0
 35 10  1  0  0  0  0
 36 10  1  0  0  0  0
 39 15  1  0  0  0  0
 40 15  1  0  0  0  0
 41 17  1  0  0  0  0
 42 17  1  0  0  0  0
 43 17  1  0  0  0  0
 45 23  1  0  0  0  0
 46 24  1  0  0  0  0
M  END
>  <Pose>
3

>  <Score>
-4.52

$$$$

 OpenBabel10142115503D

 48 47  0  0  1  0  0  0  0  0999 V2000
   39.7620   56.5180   30.7750 C   0  0  0  0  0  0  0  0  0  0  0  0
   40.1410   55.7910   31.8920 C   0  0  0  0  0  0  0  0  0  0  0  0
   39.5300   55.8960   33.1710 C   0  0  0  0  0  0  0  0  0  0  0  0
   38.4570   56.7950   33.3620 C   0  0  0  0  0  0  0  0  0  0  0  0
   38.0730   57.5230   32.2490 C   0  0  0  0  0  0  0  0  0  0  0  0
   38.6910   57.4020   30.9960 C   0  0  0  0  0  0  0  0  0  0  0  0
   38.0020   58.3360   30.0950 C   0  0  0  0  0  0  0  0  0  0  0  0
   37.0500   58.9250   30.8630 C   0  0  0  0  0  0  0  0  0  0  0  0
   37.0870   58.4610   32.0980 N   0  0  0  0  0  0  0  0  0  0  0  0
   38.2420   58.6280   28.6400 C   0  0  0  0  0  0  0  0  0  0  0  0
   36.9710   59.1750   27.9780 C   0  0  1  0  0  0  0  0  0  0  0  0
   36.1310   60.0180   28.8370 N   0  0  0  0  0  0  0  0  0  0  0  0
   36.1470   59.9430   30.2880 C   0  0  2  0  0  0  0  0  0  0  0  0
   36.2240   60.4580   26.0440 N   0  0  0  0  0  0  0  0  0  0  0  0
   35.1670   61.0480   26.8640 C   0  0  0  0  0  0  0  0  0  0  0  0
   35.2560   60.9050   28.3180 C   0  0  0  0  0  0  0  0  0  0  0  0
   36.3510   60.8290   24.6460 C   0  0  0  0  0  0  0  0  0  0  0  0
   34.5330   61.6050   28.9810 O   0  0  0  0  0  0  0  0  0  0  0  0
   36.5790   61.2760   30.9910 C   0  0  0  0  0  0  0  0  0  0  0  0
   37.7870   61.8900   30.7030 C   0  0  0  0  0  0  0  0  0  0  0  0
   38.1130   63.0760   31.3640 C   0  0  0  0  0  0  0  0  0  0  0  0
   37.2810   63.6390   32.2790 C   0  0  0  0  0  0  0  0  0  0  0  0
   36.0710   63.0710   32.6050 C   0  0  0  0  0  0  0  0  0  0  0  0
   35.7400   61.9020   31.9550 C   0  0  0  0  0  0  0  0  0  0  0  0
   39.2620   63.8090   31.1980 O   0  0  0  0  0  0  0  0  0  0  0  0
   38.8950   65.0360   31.8950 C   0  0  0  0  0  0  0  0  0  0  0  0
   37.8150   64.7870   32.7880 O   0  0  0  0  0  0  0  0  0  0  0  0
   37.0780   59.5720   26.5400 C   0  0  0  0  0  0  0  0  0  0  0  0
   37.9910   59.0290   25.8970 O   0  0  0  0  0  0  0  0  0  0  0  0
   40.2250   56.4180   29.8590 H   0  0  0  0  0  0  0  0  0  0  0  0
   40.9230   55.1270   31.7880 H   0  0  0  0  0  0  0  0  0  0  0  0
   39.2370   55.4820   31.5030 H   0  0  0  0  0  0  0  0  0  0  0  0
   39.8690   55.3180   33.9560 H   0  0  0  0  0  0  0  0  0  0  0  0
   37.9880   56.9010   34.2750 H   0  0  0  0  0  0  0  0  0  0  0  0
   38.5360   57.7260   28.1450 H   0  0  0  0  0  0  0  0  0  0  0  0
   39.0150   59.3650   28.5610 H   0  0  0  0  0  0  0  0  0  0  0  0
   36.3720   58.2940   27.8780 H   0  0  0  0  0  0  0  0  0  0  0  0
   35.1230   59.6940   30.4760 H   0  0  0  0  0  0  0  0  0  0  0  0
   34.2430   60.6030   26.5580 H   0  0  0  0  0  0  0  0  0  0  0  0
   35.2580   62.1010   26.6960 H   0  0  0  0  0  0  0  0  0  0  0  0
   37.1730   60.3020   24.2100 H   0  0  0  0  0  0  0  0  0  0  0  0
   36.5240   61.8830   24.5720 H   0  0  0  0  0  0  0  0  0  0  0  0
   35.4500   60.5780   24.1270 H   0  0  0  0  0  0  0  0  0  0  0  0
   38.4340   61.4780   30.0130 H   0  0  0  0  0  0  0  0  0  0  0  0
   35.4410   63.5000   33.3010 H   0  0  0  0  0  0  0  0  0  0  0  0
   34.8360   61.4560   32.1800 H   0  0  0  0  0  0  0  0  0  0  0  0
   39.3510   65.9520   31.7600 H   0  0  0  0  0  0  0  0  0  0  0  0
   38.3410   64.4460   32.5340 H   0  0  0  0  0  0  0  0  0  0  0  0
  2  3  1  0  0  0  0
  3  4  2  0  0  0  0
  3 33  1  0  0  0  0
  4 34  1  0  0  0  0
  5  4  1  0  0  0  0
  6  5  2  0  0  0  0
  7  8  2  0  0  0  0
  7  6  1  0  0  0  0
  8  9  1  0  0  0  0
  9  5  1  0  0  0  0
 10  7  1  0  0  0  0
 11 37  1  6  0  0  0
 11 10  1  0  0  0  0
 11 12  1  0  0  0  0
 12 13  1  0  0  0  0
 13 38  1  1  0  0  0
 13  8  1  0  0  0  0
 13 19  1  0  0  0  0
 14 28  1  0  0  0  0
 14 15  1  0  0  0  0
 15 16  1  0  0  0  0
 16 12  1  0  0  0  0
 16 18  2  0  0  0  0
 17 14  1  0  0  0  0
 19 24  1  0  0  0  0
 20 19  2  0  0  0  0
 20 21  1  0  0  0  0
 21 22  2  0  0  0  0
 23 45  1  0  0  0  0
 24 46  1  0  0  0  0
 24 23  2  0  0  0  0
 25 21  1  0  0  0  0
 28 11  1  0  0  0  0
 29 28  2  0  0  0  0
 30  1  1  0  0  0  0
 31  2  1  0  0  0  0
 32  2  1  0  0  0  0
 35 10  1  0  0  0  0
 36 10  1  0  0  0  0
 39 15  1  0  0  0  0
 40 15  1  0  0  0  0
 41 17  1  0  0  0  0
 42 17  1  0  0  0  0
 43 17  1  0  0  0  0
 44 20  1  0  0  0  0
 47 26  1  0  0  0  0
 48 27  1  0  0  0  0
M  END
>  <Pose>
1

>  <Score>
-4.48

$$$$
