
 OpenBabel10142115503D

 48 47  0  0  1  0  0  0  0  0999 V2000
   37.5710   33.1550   35.3390 C   0  0  0  0  0  0  0  0  0  0  0  0
   37.6490   33.7400   36.5920 C   0  0  0  0  0  0  0  0  0  0  0  0
   38.4190   33.2370   37.6750 C   0  0  0  0  0  0  0  0  0  0  0  0
   39.1750   32.0540   37.5050 C   0  0  0  0  0  0  0  0  0  0  0  0
   39.1020   31.4650   36.2540 C   0  0  0  0  0  0  0  0  0  0  0  0
   38.3340   31.9820   35.2000 C   0  0  0  0  0  0  0  0  0  0  0  0
   38.5200   31.0740   34.0590 C   0  0  0  0  0  0  0  0  0  0  0  0
   39.3630   30.1120   34.5110 C   0  0  0  0  0  0  0  0  0  0  0  0
   39.7000   30.3330   35.7690 N   0  0  0  0  0  0  0  0  0  0  0  0
   37.9380   31.1330   32.6750 C   0  0  0  0  0  0  0  0  0  0  0  0
   38.8320   30.3840   31.6780 C   0  0  1  0  0  0  0  0  0  0  0  0
   39.5090   29.1980   32.2130 N   0  0  0  0  0  0  0  0  0  0  0  0
   39.7830   29.0060   33.6270 C   0  0  2  0  0  0  0  0  0  0  0  0
   38.7740   29.3220   29.4830 N   0  0  0  0  0  0  0  0  0  0  0  0
   39.7250   28.3200   29.9620 C   0  0  0  0  0  0  0  0  0  0  0  0
   39.9530   28.2120   31.4030 C   0  0  0  0  0  0  0  0  0  0  0  0
   38.2840   29.2640   28.1180 C   0  0  0  0  0  0  0  0  0  0  0  0
   40.5290   27.2290   31.7940 O   0  0  0  0  0  0  0  0  0  0  0  0
   39.0930   27.7410   34.2450 C   0  0  0  0  0  0  0  0  0  0  0  0
   37.8050   27.3720   33.8910 C   0  0  0  0  0  0  0  0  0  0  0  0
   37.2460   26.2340   34.4780 C   0  0  0  0  0  0  0  0  0  0  0  0
   37.9300   25.4860   35.3840 C   0  0  0  0  0  0  0  0  0  0  0  0
   39.2100   25.8090   35.7720 C   0  0  0  0  0  0  0  0  0  0  0  0
   39.7690   26.9280   35.1960 C   0  0  0  0  0  0  0  0  0  0  0  0
   35.9920   25.7310   34.2420 O   0  0  0  0  0  0  0  0  0  0  0  0
   36.1060   24.4250   34.8810 C   0  0  0  0  0  0  0  0  0  0  0  0
   37.1800   24.4310   35.8150 O   0  0  0  0  0  0  0  0  0  0  0  0
   38.3450   30.3050   30.2650 C   0  0  0  0  0  0  0  0  0  0  0  0
   37.5450   31.1890   29.9190 O   0  0  0  0  0  0  0  0  0  0  0  0
   37.0020   33.5470   34.5720 H   0  0  0  0  0  0  0  0  0  0  0  0
   37.1080   34.6050   36.7510 H   0  0  0  0  0  0  0  0  0  0  0  0
   38.5170   33.8510   36.0460 H   0  0  0  0  0  0  0  0  0  0  0  0
   38.4270   33.7320   38.5800 H   0  0  0  0  0  0  0  0  0  0  0  0
   39.7460   31.6540   38.2660 H   0  0  0  0  0  0  0  0  0  0  0  0
   37.8560   32.1570   32.3720 H   0  0  0  0  0  0  0  0  0  0  0  0
   36.9740   30.6700   32.6870 H   0  0  0  0  0  0  0  0  0  0  0  0
   39.6470   31.0660   31.5490 H   0  0  0  0  0  0  0  0  0  0  0  0
   40.8490   28.9200   33.6030 H   0  0  0  0  0  0  0  0  0  0  0  0
   40.6700   28.5370   29.5080 H   0  0  0  0  0  0  0  0  0  0  0  0
   39.2810   27.3840   29.6940 H   0  0  0  0  0  0  0  0  0  0  0  0
   37.6020   30.0720   27.9500 H   0  0  0  0  0  0  0  0  0  0  0  0
   37.7800   28.3340   27.9590 H   0  0  0  0  0  0  0  0  0  0  0  0
   39.1070   29.3450   27.4400 H   0  0  0  0  0  0  0  0  0  0  0  0
   37.2680   27.9270   33.2070 H   0  0  0  0  0  0  0  0  0  0  0  0
   39.7260   25.2400   36.4620 H   0  0  0  0  0  0  0  0  0  0  0  0
   40.7300   27.1900   35.4690 H   0  0  0  0  0  0  0  0  0  0  0  0
   35.4970   23.6150   34.6850 H   0  0  0  0  0  0  0  0  0  0  0  0
   36.7340   24.8740   35.5660 H   0  0  0  0  0  0  0  0  0  0  0  0
  2 31  1  0  0  0  0
  2  3  1  0  0  0  0
  3 33  1  0  0  0  0
  4  3  2  0  0  0  0
  4 34  1  0  0  0  0
  5  4  1  0  0  0  0
  6  5  2  0  0  0  0
  7  8  2  0  0  0  0
  7  6  1  0  0  0  0
  8  9  1  0  0  0  0
  9  5  1  0  0  0  0
 10 36  1  0  0  0  0
 10  7  1  0  0  0  0
 11 37  1  6  0  0  0
 11 12  1  0  0  0  0
 11 10  1  0  0  0  0
 12 13  1  0  0  0  0
 13 38  1  1  0  0  0
 13 19  1  0  0  0  0
 13  8  1  0  0  0  0
 14 15  1  0  0  0  0
 14 28  1  0  0  0  0
 15 16  1  0  0  0  0
 16 18  2  0  0  0  0
 16 12  1  0  0  0  0
 17 14  1  0  0  0  0
 19 24  1  0  0  0  0
 20 19  2  0  0  0  0
 20 21  1  0  0  0  0
 21 22  2  0  0  0  0
 23 45  1  0  0  0  0
 24 46  1  0  0  0  0
 24 23  2  0  0  0  0
 25 21  1  0  0  0  0
 28 11  1  0  0  0  0
 29 28  2  0  0  0  0
 30  1  1  0  0  0  0
 32  2  1  0  0  0  0
 35 10  1  0  0  0  0
 39 15  1  0  0  0  0
 40 15  1  0  0  0  0
 41 17  1  0  0  0  0
 42 17  1  0  0  0  0
 43 17  1  0  0  0  0
 44 20  1  0  0  0  0
 47 26  1  0  0  0  0
 48 27  1  0  0  0  0
M  END
>  <Pose>
2

>  <Score>
-1.72

$$$$

 OpenBabel10142115503D

 48 47  0  0  1  0  0  0  0  0999 V2000
   41.5080   24.2880   34.5170 C   0  0  0  0  0  0  0  0  0  0  0  0
   42.8840   24.1900   34.3890 C   0  0  0  0  0  0  0  0  0  0  0  0
   43.7710   25.2980   34.3140 C   0  0  0  0  0  0  0  0  0  0  0  0
   43.2540   26.6120   34.3700 C   0  0  0  0  0  0  0  0  0  0  0  0
   41.8800   26.7160   34.4990 C   0  0  0  0  0  0  0  0  0  0  0  0
   41.0240   25.6070   34.5710 C   0  0  0  0  0  0  0  0  0  0  0  0
   39.6590   26.1350   34.6990 C   0  0  0  0  0  0  0  0  0  0  0  0
   39.8040   27.4850   34.6930 C   0  0  0  0  0  0  0  0  0  0  0  0
   41.0760   27.8210   34.5800 N   0  0  0  0  0  0  0  0  0  0  0  0
   38.3490   25.4070   34.8120 C   0  0  0  0  0  0  0  0  0  0  0  0
   37.3000   26.2820   35.5110 C   0  0  1  0  0  0  0  0  0  0  0  0
   37.3970   27.7190   35.2320 N   0  0  0  0  0  0  0  0  0  0  0  0
   38.6240   28.3670   34.8030 C   0  0  2  0  0  0  0  0  0  0  0  0
   34.8890   26.5280   35.7780 N   0  0  0  0  0  0  0  0  0  0  0  0
   35.0600   27.9800   35.8250 C   0  0  0  0  0  0  0  0  0  0  0  0
   36.3390   28.5430   35.3910 C   0  0  0  0  0  0  0  0  0  0  0  0
   33.5630   25.9490   35.8950 C   0  0  0  0  0  0  0  0  0  0  0  0
   36.3740   29.7300   35.1930 O   0  0  0  0  0  0  0  0  0  0  0  0
   38.5270   29.0490   33.3940 C   0  0  0  0  0  0  0  0  0  0  0  0
   39.0180   28.4330   32.2540 C   0  0  0  0  0  0  0  0  0  0  0  0
   38.9010   29.0940   31.0290 C   0  0  0  0  0  0  0  0  0  0  0  0
   38.3230   30.3200   30.9290 C   0  0  0  0  0  0  0  0  0  0  0  0
   37.8210   30.9780   32.0280 C   0  0  0  0  0  0  0  0  0  0  0  0
   37.9300   30.3310   33.2400 C   0  0  0  0  0  0  0  0  0  0  0  0
   39.3310   28.6300   29.8110 O   0  0  0  0  0  0  0  0  0  0  0  0
   38.6770   29.5810   28.9200 C   0  0  0  0  0  0  0  0  0  0  0  0
   38.3250   30.7600   29.6370 O   0  0  0  0  0  0  0  0  0  0  0  0
   35.9240   25.7100   35.6390 C   0  0  0  0  0  0  0  0  0  0  0  0
   35.8480   24.4710   35.5980 O   0  0  0  0  0  0  0  0  0  0  0  0
   40.8910   23.4620   34.5700 H   0  0  0  0  0  0  0  0  0  0  0  0
   43.2950   23.2440   34.3430 H   0  0  0  0  0  0  0  0  0  0  0  0
   42.5930   24.5060   35.3270 H   0  0  0  0  0  0  0  0  0  0  0  0
   44.7870   25.1430   34.2200 H   0  0  0  0  0  0  0  0  0  0  0  0
   43.8640   27.4430   34.3170 H   0  0  0  0  0  0  0  0  0  0  0  0
   38.4930   24.5110   35.3790 H   0  0  0  0  0  0  0  0  0  0  0  0
   38.0000   25.1730   33.8280 H   0  0  0  0  0  0  0  0  0  0  0  0
   37.6110   26.2330   36.5340 H   0  0  0  0  0  0  0  0  0  0  0  0
   38.7510   29.0770   35.5930 H   0  0  0  0  0  0  0  0  0  0  0  0
   34.9080   28.2840   36.8400 H   0  0  0  0  0  0  0  0  0  0  0  0
   34.3520   28.3530   35.1140 H   0  0  0  0  0  0  0  0  0  0  0  0
   33.6330   24.8830   35.8390 H   0  0  0  0  0  0  0  0  0  0  0  0
   32.9450   26.3090   35.0990 H   0  0  0  0  0  0  0  0  0  0  0  0
   33.1340   26.2290   36.8350 H   0  0  0  0  0  0  0  0  0  0  0  0
   39.4620   27.5030   32.3090 H   0  0  0  0  0  0  0  0  0  0  0  0
   37.3840   31.9090   31.9490 H   0  0  0  0  0  0  0  0  0  0  0  0
   37.5590   30.8020   34.0810 H   0  0  0  0  0  0  0  0  0  0  0  0
   38.4950   29.4230   27.9170 H   0  0  0  0  0  0  0  0  0  0  0  0
   38.8070   30.2860   29.6630 H   0  0  0  0  0  0  0  0  0  0  0  0
  1 30  1  0  0  0  0
  2 32  1  0  0  0  0
  3  4  2  0  0  0  0
  3  2  1  0  0  0  0
  4  5  1  0  0  0  0
  5  6  2  0  0  0  0
  5  9  1  0  0  0  0
  6  7  1  0  0  0  0
  7 10  1  0  0  0  0
  8  7  2  0  0  0  0
  8 13  1  0  0  0  0
  9  8  1  0  0  0  0
 10 35  1  0  0  0  0
 10 11  1  0  0  0  0
 11 28  1  0  0  0  0
 11 37  1  1  0  0  0
 12 16  1  0  0  0  0
 12 11  1  0  0  0  0
 13 12  1  0  0  0  0
 13 38  1  1  0  0  0
 14 15  1  0  0  0  0
 14 17  1  0  0  0  0
 15 39  1  0  0  0  0
 16 15  1  0  0  0  0
 17 43  1  0  0  0  0
 18 16  2  0  0  0  0
 19 13  1  0  0  0  0
 20 44  1  0  0  0  0
 20 19  2  0  0  0  0
 21 20  1  0  0  0  0
 22 21  2  0  0  0  0
 23 24  2  0  0  0  0
 24 19  1  0  0  0  0
 24 46  1  0  0  0  0
 25 21  1  0  0  0  0
 27 48  1  0  0  0  0
 28 14  1  0  0  0  0
 29 28  2  0  0  0  0
 31  2  1  0  0  0  0
 33  3  1  0  0  0  0
 34  4  1  0  0  0  0
 36 10  1  0  0  0  0
 40 15  1  0  0  0  0
 41 17  1  0  0  0  0
 42 17  1  0  0  0  0
 45 23  1  0  0  0  0
 47 26  1  0  0  0  0
M  END
>  <Pose>
1

>  <Score>
-1.43

$$$$

 OpenBabel10142115503D

 48 47  0  0  1  0  0  0  0  0999 V2000
   36.2370   32.7970   33.3780 C   0  0  0  0  0  0  0  0  0  0  0  0
   36.0400   33.4850   34.5640 C   0  0  0  0  0  0  0  0  0  0  0  0
   36.7700   33.2590   35.7620 C   0  0  0  0  0  0  0  0  0  0  0  0
   37.7780   32.2680   35.7910 C   0  0  0  0  0  0  0  0  0  0  0  0
   37.9790   31.5770   34.6080 C   0  0  0  0  0  0  0  0  0  0  0  0
   37.2460   31.8190   33.4370 C   0  0  0  0  0  0  0  0  0  0  0  0
   37.7550   30.8860   32.4220 C   0  0  0  0  0  0  0  0  0  0  0  0
   38.7280   30.1800   33.0510 C   0  0  0  0  0  0  0  0  0  0  0  0
   38.8600   30.5740   34.3050 N   0  0  0  0  0  0  0  0  0  0  0  0
   37.3400   30.6990   30.9900 C   0  0  0  0  0  0  0  0  0  0  0  0
   38.4840   30.0920   30.1670 C   0  0  1  0  0  0  0  0  0  0  0  0
   39.3340   29.1370   30.8870 N   0  0  0  0  0  0  0  0  0  0  0  0
   39.4760   29.1290   32.3320 C   0  0  2  0  0  0  0  0  0  0  0  0
   38.9110   28.8680   28.1020 N   0  0  0  0  0  0  0  0  0  0  0  0
   39.9950   28.1490   28.7720 C   0  0  0  0  0  0  0  0  0  0  0  0
   40.0710   28.2140   30.2320 C   0  0  0  0  0  0  0  0  0  0  0  0
   38.6080   28.5890   26.7100 C   0  0  0  0  0  0  0  0  0  0  0  0
   40.7970   27.4220   30.7770 O   0  0  0  0  0  0  0  0  0  0  0  0
   39.0080   27.7960   33.0130 C   0  0  0  0  0  0  0  0  0  0  0  0
   37.6790   27.4030   33.0010 C   0  0  0  0  0  0  0  0  0  0  0  0
   37.3270   26.2040   33.6240 C   0  0  0  0  0  0  0  0  0  0  0  0
   38.2490   25.4190   34.2410 C   0  0  0  0  0  0  0  0  0  0  0  0
   39.5810   25.7620   34.2850 C   0  0  0  0  0  0  0  0  0  0  0  0
   39.9380   26.9420   33.6690 C   0  0  0  0  0  0  0  0  0  0  0  0
   36.0650   25.6710   33.7060 O   0  0  0  0  0  0  0  0  0  0  0  0
   36.3760   24.3270   34.1790 C   0  0  0  0  0  0  0  0  0  0  0  0
   37.6680   24.3060   34.7760 O   0  0  0  0  0  0  0  0  0  0  0  0
   38.1930   29.7890   28.7310 C   0  0  0  0  0  0  0  0  0  0  0  0
   37.2670   30.4380   28.2190 O   0  0  0  0  0  0  0  0  0  0  0  0
   35.6900   32.9850   32.5240 H   0  0  0  0  0  0  0  0  0  0  0  0
   35.3110   34.2150   34.5780 H   0  0  0  0  0  0  0  0  0  0  0  0
   36.9220   33.7440   34.0940 H   0  0  0  0  0  0  0  0  0  0  0  0
   36.5660   33.8160   36.6070 H   0  0  0  0  0  0  0  0  0  0  0  0
   38.3290   32.0710   36.6410 H   0  0  0  0  0  0  0  0  0  0  0  0
   37.0740   31.6480   30.5740 H   0  0  0  0  0  0  0  0  0  0  0  0
   36.5030   30.0320   30.9590 H   0  0  0  0  0  0  0  0  0  0  0  0
   39.1410   30.9270   30.0450 H   0  0  0  0  0  0  0  0  0  0  0  0
   40.5310   29.2840   32.4200 H   0  0  0  0  0  0  0  0  0  0  0  0
   40.9160   28.5360   28.3900 H   0  0  0  0  0  0  0  0  0  0  0  0
   39.7970   27.1180   28.5640 H   0  0  0  0  0  0  0  0  0  0  0  0
   37.7920   29.2050   26.3930 H   0  0  0  0  0  0  0  0  0  0  0  0
   38.3390   27.5590   26.6030 H   0  0  0  0  0  0  0  0  0  0  0  0
   39.4670   28.7980   26.1090 H   0  0  0  0  0  0  0  0  0  0  0  0
   36.9630   27.9860   32.5400 H   0  0  0  0  0  0  0  0  0  0  0  0
   40.2790   25.1650   34.7550 H   0  0  0  0  0  0  0  0  0  0  0  0
   40.9310   27.2210   33.6850 H   0  0  0  0  0  0  0  0  0  0  0  0
   35.7510   23.5100   34.0940 H   0  0  0  0  0  0  0  0  0  0  0  0
   37.1620   24.7480   34.6980 H   0  0  0  0  0  0  0  0  0  0  0  0
  2 31  1  0  0  0  0
  2  3  1  0  0  0  0
  3  4  2  0  0  0  0
  3 33  1  0  0  0  0
  4 34  1  0  0  0  0
  5  4  1  0  0  0  0
  6  5  2  0  0  0  0
  7  8  2  0  0  0  0
  7  6  1  0  0  0  0
  8  9  1  0  0  0  0
  9  5  1  0  0  0  0
 10  7  1  0  0  0  0
 11 37  1  6  0  0  0
 11 12  1  0  0  0  0
 11 10  1  0  0  0  0
 12 13  1  0  0  0  0
 13 38  1  1  0  0  0
 13 19  1  0  0  0  0
 13  8  1  0  0  0  0
 14 28  1  0  0  0  0
 14 15  1  0  0  0  0
 15 16  1  0  0  0  0
 16 18  2  0  0  0  0
 16 12  1  0  0  0  0
 17 14  1  0  0  0  0
 19 24  1  0  0  0  0
 20 19  2  0  0  0  0
 20 21  1  0  0  0  0
 21 25  1  0  0  0  0
 21 22  2  0  0  0  0
 23 45  1  0  0  0  0
 24 46  1  0  0  0  0
 24 23  2  0  0  0  0
 28 11  1  0  0  0  0
 29 28  2  0  0  0  0
 30  1  1  0  0  0  0
 32  2  1  0  0  0  0
 35 10  1  0  0  0  0
 36 10  1  0  0  0  0
 39 15  1  0  0  0  0
 40 15  1  0  0  0  0
 41 17  1  0  0  0  0
 42 17  1  0  0  0  0
 43 17  1  0  0  0  0
 44 20  1  0  0  0  0
 47 26  1  0  0  0  0
 48 27  1  0  0  0  0
M  END
>  <Pose>
1

>  <Score>
-1.26

$$$$

 OpenBabel10142115503D

 48 47  0  0  1  0  0  0  0  0999 V2000
   35.5580   27.8440   36.4130 C   0  0  0  0  0  0  0  0  0  0  0  0
   34.8800   26.6380   36.4610 C   0  0  0  0  0  0  0  0  0  0  0  0
   35.1210   25.5390   35.5930 C   0  0  0  0  0  0  0  0  0  0  0  0
   36.1140   25.6420   34.5930 C   0  0  0  0  0  0  0  0  0  0  0  0
   36.7960   26.8460   34.5410 C   0  0  0  0  0  0  0  0  0  0  0  0
   36.5400   27.9170   35.4100 C   0  0  0  0  0  0  0  0  0  0  0  0
   37.4620   28.9970   35.0290 C   0  0  0  0  0  0  0  0  0  0  0  0
   38.1760   28.4970   33.9900 C   0  0  0  0  0  0  0  0  0  0  0  0
   37.7980   27.2640   33.7070 N   0  0  0  0  0  0  0  0  0  0  0  0
   37.6290   30.3720   35.6120 C   0  0  0  0  0  0  0  0  0  0  0  0
   39.0400   30.9090   35.3400 C   0  0  1  0  0  0  0  0  0  0  0  0
   39.6260   30.5060   34.0570 N   0  0  0  0  0  0  0  0  0  0  0  0
   39.2160   29.3150   33.3320 C   0  0  2  0  0  0  0  0  0  0  0  0
   40.3020   32.9930   35.2240 N   0  0  0  0  0  0  0  0  0  0  0  0
   41.1050   32.4270   34.1400 C   0  0  0  0  0  0  0  0  0  0  0  0
   40.6220   31.2130   33.4810 C   0  0  0  0  0  0  0  0  0  0  0  0
   40.5650   34.3410   35.6950 C   0  0  0  0  0  0  0  0  0  0  0  0
   41.1470   30.9120   32.4390 O   0  0  0  0  0  0  0  0  0  0  0  0
   38.6270   29.6060   31.9080 C   0  0  0  0  0  0  0  0  0  0  0  0
   37.4270   30.2790   31.7430 C   0  0  0  0  0  0  0  0  0  0  0  0
   36.9570   30.5070   30.4480 C   0  0  0  0  0  0  0  0  0  0  0  0
   37.6420   30.0850   29.3520 C   0  0  0  0  0  0  0  0  0  0  0  0
   38.8360   29.4110   29.4580 C   0  0  0  0  0  0  0  0  0  0  0  0
   39.3090   29.1840   30.7330 C   0  0  0  0  0  0  0  0  0  0  0  0
   35.7950   31.1530   30.1070 O   0  0  0  0  0  0  0  0  0  0  0  0
   36.0050   31.3390   28.6760 C   0  0  0  0  0  0  0  0  0  0  0  0
   36.9860   30.4210   28.2030 O   0  0  0  0  0  0  0  0  0  0  0  0
   39.3340   32.2990   35.8090 C   0  0  0  0  0  0  0  0  0  0  0  0
   38.6220   32.7180   36.7370 O   0  0  0  0  0  0  0  0  0  0  0  0
   35.3600   28.6240   37.0600 H   0  0  0  0  0  0  0  0  0  0  0  0
   34.1460   26.5290   37.1780 H   0  0  0  0  0  0  0  0  0  0  0  0
   35.8510   26.5620   36.8000 H   0  0  0  0  0  0  0  0  0  0  0  0
   34.5730   24.6700   35.6920 H   0  0  0  0  0  0  0  0  0  0  0  0
   36.3190   24.8680   33.9410 H   0  0  0  0  0  0  0  0  0  0  0  0
   37.4690   30.3270   36.6690 H   0  0  0  0  0  0  0  0  0  0  0  0
   36.9180   31.0280   35.1560 H   0  0  0  0  0  0  0  0  0  0  0  0
   39.6320   30.3550   36.0380 H   0  0  0  0  0  0  0  0  0  0  0  0
   40.1460   28.7880   33.2900 H   0  0  0  0  0  0  0  0  0  0  0  0
   42.0710   32.2050   34.5430 H   0  0  0  0  0  0  0  0  0  0  0  0
   41.0770   33.1730   33.3740 H   0  0  0  0  0  0  0  0  0  0  0  0
   39.8850   34.5810   36.4850 H   0  0  0  0  0  0  0  0  0  0  0  0
   40.4340   35.0320   34.8880 H   0  0  0  0  0  0  0  0  0  0  0  0
   41.5700   34.4020   36.0570 H   0  0  0  0  0  0  0  0  0  0  0  0
   36.8910   30.6060   32.5620 H   0  0  0  0  0  0  0  0  0  0  0  0
   39.3530   29.0900   28.6250 H   0  0  0  0  0  0  0  0  0  0  0  0
   40.2040   28.6830   30.8400 H   0  0  0  0  0  0  0  0  0  0  0  0
   35.5150   32.0340   28.0910 H   0  0  0  0  0  0  0  0  0  0  0  0
   36.5140   30.4410   28.6870 H   0  0  0  0  0  0  0  0  0  0  0  0
  1 30  1  0  0  0  0
  2 32  1  0  0  0  0
  2 31  1  0  0  0  0
  3 33  1  0  0  0  0
  3  2  1  0  0  0  0
  4  3  2  0  0  0  0
  5  4  1  0  0  0  0
  5  6  1  0  0  0  0
  7  6  1  0  0  0  0
  7 10  1  0  0  0  0
  8  7  2  0  0  0  0
  9  8  1  0  0  0  0
  9  5  2  0  0  0  0
 10 35  1  0  0  0  0
 11 10  1  0  0  0  0
 11 28  1  0  0  0  0
 11 37  1  1  0  0  0
 12 11  1  0  0  0  0
 13 38  1  6  0  0  0
 13  8  1  0  0  0  0
 13 12  1  0  0  0  0
 14 17  1  0  0  0  0
 14 28  1  0  0  0  0
 15 39  1  0  0  0  0
 15 14  1  0  0  0  0
 16 12  1  0  0  0  0
 16 15  1  0  0  0  0
 17 43  1  0  0  0  0
 17 41  1  0  0  0  0
 18 16  2  0  0  0  0
 19 13  1  0  0  0  0
 20 19  2  0  0  0  0
 20 44  1  0  0  0  0
 21 20  1  0  0  0  0
 22 21  2  0  0  0  0
 23 24  2  0  0  0  0
 24 46  1  0  0  0  0
 24 19  1  0  0  0  0
 25 21  1  0  0  0  0
 27 48  1  0  0  0  0
 28 29  2  0  0  0  0
 34  4  1  0  0  0  0
 36 10  1  0  0  0  0
 40 15  1  0  0  0  0
 42 17  1  0  0  0  0
 45 23  1  0  0  0  0
 47 26  1  0  0  0  0
M  END
>  <Pose>
1

>  <Score>
-1.13

$$$$
