
 OpenBabel10142115503D

 48 47  0  0  1  0  0  0  0  0999 V2000
   24.3900   17.8180   20.4190 C   0  0  0  0  0  0  0  0  0  0  0  0
   25.1530   17.0070   19.5950 C   0  0  0  0  0  0  0  0  0  0  0  0
   25.5140   17.3230   18.2580 C   0  0  0  0  0  0  0  0  0  0  0  0
   25.0830   18.5420   17.6860 C   0  0  0  0  0  0  0  0  0  0  0  0
   24.3210   19.3570   18.5050 C   0  0  0  0  0  0  0  0  0  0  0  0
   23.9770   19.0230   19.8230 C   0  0  0  0  0  0  0  0  0  0  0  0
   23.1690   20.1360   20.3420 C   0  0  0  0  0  0  0  0  0  0  0  0
   23.0970   21.0230   19.3180 C   0  0  0  0  0  0  0  0  0  0  0  0
   23.7570   20.5800   18.2630 N   0  0  0  0  0  0  0  0  0  0  0  0
   22.5320   20.3180   21.6910 C   0  0  0  0  0  0  0  0  0  0  0  0
   22.3220   21.8070   21.9960 C   0  0  1  0  0  0  0  0  0  0  0  0
   21.9970   22.6440   20.8360 N   0  0  0  0  0  0  0  0  0  0  0  0
   22.3480   22.2870   19.4720 C   0  0  2  0  0  0  0  0  0  0  0  0
   21.0080   23.3030   23.4040 N   0  0  0  0  0  0  0  0  0  0  0  0
   20.9810   24.2770   22.3130 C   0  0  0  0  0  0  0  0  0  0  0  0
   21.3700   23.8310   20.9750 C   0  0  0  0  0  0  0  0  0  0  0  0
   20.3470   23.6010   24.6610 C   0  0  0  0  0  0  0  0  0  0  0  0
   21.0990   24.5610   20.0560 O   0  0  0  0  0  0  0  0  0  0  0  0
   21.1140   22.1170   18.5190 C   0  0  0  0  0  0  0  0  0  0  0  0
   21.1300   22.5950   17.2190 C   0  0  0  0  0  0  0  0  0  0  0  0
   19.9990   22.4120   16.4210 C   0  0  0  0  0  0  0  0  0  0  0  0
   18.8880   21.7820   16.8860 C   0  0  0  0  0  0  0  0  0  0  0  0
   18.8170   21.2900   18.1690 C   0  0  0  0  0  0  0  0  0  0  0  0
   19.9300   21.4640   18.9620 C   0  0  0  0  0  0  0  0  0  0  0  0
   19.8480   22.8210   15.1200 O   0  0  0  0  0  0  0  0  0  0  0  0
   18.6330   22.1010   14.7560 C   0  0  0  0  0  0  0  0  0  0  0  0
   17.9180   21.7260   15.9280 O   0  0  0  0  0  0  0  0  0  0  0  0
   21.6370   22.1400   23.2830 C   0  0  0  0  0  0  0  0  0  0  0  0
   21.7030   21.2740   24.1710 O   0  0  0  0  0  0  0  0  0  0  0  0
   24.1450   17.5600   21.3880 H   0  0  0  0  0  0  0  0  0  0  0  0
   25.4830   16.1080   19.9800 H   0  0  0  0  0  0  0  0  0  0  0  0
   25.6640   17.8450   19.9150 H   0  0  0  0  0  0  0  0  0  0  0  0
   26.0880   16.6660   17.7070 H   0  0  0  0  0  0  0  0  0  0  0  0
   25.3230   18.8070   16.7180 H   0  0  0  0  0  0  0  0  0  0  0  0
   23.1660   19.8920   22.4400 H   0  0  0  0  0  0  0  0  0  0  0  0
   21.5790   19.8300   21.6890 H   0  0  0  0  0  0  0  0  0  0  0  0
   23.3150   22.1300   22.2330 H   0  0  0  0  0  0  0  0  0  0  0  0
   22.9570   23.1260   19.2070 H   0  0  0  0  0  0  0  0  0  0  0  0
   21.6390   25.0750   22.5850 H   0  0  0  0  0  0  0  0  0  0  0  0
   19.9470   24.5350   22.2160 H   0  0  0  0  0  0  0  0  0  0  0  0
   20.4710   22.7780   25.3340 H   0  0  0  0  0  0  0  0  0  0  0  0
   19.3040   23.7630   24.4850 H   0  0  0  0  0  0  0  0  0  0  0  0
   20.7770   24.4810   25.0900 H   0  0  0  0  0  0  0  0  0  0  0  0
   21.9630   23.0780   16.8470 H   0  0  0  0  0  0  0  0  0  0  0  0
   17.9720   20.8130   18.5210 H   0  0  0  0  0  0  0  0  0  0  0  0
   19.9040   21.1020   19.9280 H   0  0  0  0  0  0  0  0  0  0  0  0
   18.3350   21.8940   13.7900 H   0  0  0  0  0  0  0  0  0  0  0  0
   18.3280   22.2270   15.7340 H   0  0  0  0  0  0  0  0  0  0  0  0
  1 30  1  0  0  0  0
  2 32  1  0  0  0  0
  2 31  1  0  0  0  0
  3  2  1  0  0  0  0
  4  3  2  0  0  0  0
  4  5  1  0  0  0  0
  5  6  1  0  0  0  0
  6  7  1  0  0  0  0
  7 10  1  0  0  0  0
  8 13  1  0  0  0  0
  8  7  2  0  0  0  0
  9  5  2  0  0  0  0
  9  8  1  0  0  0  0
 10 11  1  0  0  0  0
 10 35  1  0  0  0  0
 11 37  1  1  0  0  0
 11 28  1  0  0  0  0
 12 16  1  0  0  0  0
 12 11  1  0  0  0  0
 13 38  1  6  0  0  0
 13 12  1  0  0  0  0
 14 17  1  0  0  0  0
 15 39  1  0  0  0  0
 15 14  1  0  0  0  0
 16 15  1  0  0  0  0
 17 43  1  0  0  0  0
 17 41  1  0  0  0  0
 18 16  2  0  0  0  0
 19 24  1  0  0  0  0
 19 13  1  0  0  0  0
 20 19  2  0  0  0  0
 21 22  2  0  0  0  0
 21 20  1  0  0  0  0
 23 45  1  0  0  0  0
 23 24  2  0  0  0  0
 24 46  1  0  0  0  0
 25 21  1  0  0  0  0
 28 14  1  0  0  0  0
 28 29  2  0  0  0  0
 33  3  1  0  0  0  0
 34  4  1  0  0  0  0
 36 10  1  0  0  0  0
 40 15  1  0  0  0  0
 42 17  1  0  0  0  0
 44 20  1  0  0  0  0
 47 26  1  0  0  0  0
 48 27  1  0  0  0  0
M  END
>  <Pose>
4

>  <Score>
-4.62

$$$$

 OpenBabel10142115503D

 48 47  0  0  1  0  0  0  0  0999 V2000
   24.3060   19.9420   19.8210 C   0  0  0  0  0  0  0  0  0  0  0  0
   24.8720   19.3870   18.6860 C   0  0  0  0  0  0  0  0  0  0  0  0
   24.3770   18.2370   18.0130 C   0  0  0  0  0  0  0  0  0  0  0  0
   23.2260   17.5810   18.5050 C   0  0  0  0  0  0  0  0  0  0  0  0
   22.6550   18.1320   19.6400 C   0  0  0  0  0  0  0  0  0  0  0  0
   23.1630   19.2690   20.2860 C   0  0  0  0  0  0  0  0  0  0  0  0
   22.2850   19.5260   21.4370 C   0  0  0  0  0  0  0  0  0  0  0  0
   21.3460   18.5470   21.3860 C   0  0  0  0  0  0  0  0  0  0  0  0
   21.5540   17.7470   20.3570 N   0  0  0  0  0  0  0  0  0  0  0  0
   22.3510   20.6080   22.4780 C   0  0  0  0  0  0  0  0  0  0  0  0
   20.9670   20.8580   23.0900 C   0  0  1  0  0  0  0  0  0  0  0  0
   20.1170   19.6700   23.2220 N   0  0  0  0  0  0  0  0  0  0  0  0
   20.2770   18.4800   22.4040 C   0  0  2  0  0  0  0  0  0  0  0  0
   19.8940   21.8060   25.0640 N   0  0  0  0  0  0  0  0  0  0  0  0
   18.8550   20.7800   24.9710 C   0  0  0  0  0  0  0  0  0  0  0  0
   19.0970   19.6250   24.1060 C   0  0  0  0  0  0  0  0  0  0  0  0
   19.8440   22.7950   26.1250 C   0  0  0  0  0  0  0  0  0  0  0  0
   18.3610   18.6800   24.2370 O   0  0  0  0  0  0  0  0  0  0  0  0
   20.6110   17.1840   23.2210 C   0  0  0  0  0  0  0  0  0  0  0  0
   21.5450   17.1910   24.2440 C   0  0  0  0  0  0  0  0  0  0  0  0
   21.7970   16.0030   24.9340 C   0  0  0  0  0  0  0  0  0  0  0  0
   21.1540   14.8460   24.6270 C   0  0  0  0  0  0  0  0  0  0  0  0
   20.2180   14.7820   23.6190 C   0  0  0  0  0  0  0  0  0  0  0  0
   19.9620   15.9500   22.9350 C   0  0  0  0  0  0  0  0  0  0  0  0
   22.6850   15.8360   25.9660 O   0  0  0  0  0  0  0  0  0  0  0  0
   22.2860   14.5180   26.4470 C   0  0  0  0  0  0  0  0  0  0  0  0
   21.5660   13.8260   25.4330 O   0  0  0  0  0  0  0  0  0  0  0  0
   20.8900   21.8690   24.1900 C   0  0  0  0  0  0  0  0  0  0  0  0
   21.7980   22.7160   24.2090 O   0  0  0  0  0  0  0  0  0  0  0  0
   24.6900   20.7790   20.2860 H   0  0  0  0  0  0  0  0  0  0  0  0
   25.7150   19.8400   18.3000 H   0  0  0  0  0  0  0  0  0  0  0  0
   23.9790   19.8660   18.4920 H   0  0  0  0  0  0  0  0  0  0  0  0
   24.8550   17.8840   17.1690 H   0  0  0  0  0  0  0  0  0  0  0  0
   22.8350   16.7430   18.0470 H   0  0  0  0  0  0  0  0  0  0  0  0
   22.7030   21.5110   22.0240 H   0  0  0  0  0  0  0  0  0  0  0  0
   23.0190   20.2970   23.2540 H   0  0  0  0  0  0  0  0  0  0  0  0
   20.4710   21.4010   22.3120 H   0  0  0  0  0  0  0  0  0  0  0  0
   19.3130   18.4360   21.9420 H   0  0  0  0  0  0  0  0  0  0  0  0
   17.9670   21.2600   24.6180 H   0  0  0  0  0  0  0  0  0  0  0  0
   18.8040   20.3660   25.9560 H   0  0  0  0  0  0  0  0  0  0  0  0
   20.6790   23.4580   26.0340 H   0  0  0  0  0  0  0  0  0  0  0  0
   19.8810   22.3030   27.0740 H   0  0  0  0  0  0  0  0  0  0  0  0
   18.9350   23.3540   26.0490 H   0  0  0  0  0  0  0  0  0  0  0  0
   22.0460   18.0590   24.4910 H   0  0  0  0  0  0  0  0  0  0  0  0
   19.7330   13.9010   23.3870 H   0  0  0  0  0  0  0  0  0  0  0  0
   19.2630   15.9290   22.1760 H   0  0  0  0  0  0  0  0  0  0  0  0
   22.4960   14.1430   27.3850 H   0  0  0  0  0  0  0  0  0  0  0  0
   22.0590   14.2870   25.4670 H   0  0  0  0  0  0  0  0  0  0  0  0
  1 30  1  0  0  0  0
  3  4  2  0  0  0  0
  3  2  1  0  0  0  0
  4  5  1  0  0  0  0
  5  6  2  0  0  0  0
  5  9  1  0  0  0  0
  6  7  1  0  0  0  0
  7 10  1  0  0  0  0
  8  7  2  0  0  0  0
  8 13  1  0  0  0  0
  9  8  1  0  0  0  0
 10 11  1  0  0  0  0
 10 36  1  0  0  0  0
 11 37  1  6  0  0  0
 11 12  1  0  0  0  0
 11 28  1  0  0  0  0
 12 16  1  0  0  0  0
 13 38  1  6  0  0  0
 13 19  1  0  0  0  0
 13 12  1  0  0  0  0
 14 17  1  0  0  0  0
 15 14  1  0  0  0  0
 15 40  1  0  0  0  0
 16 18  2  0  0  0  0
 16 15  1  0  0  0  0
 17 42  1  0  0  0  0
 19 20  2  0  0  0  0
 20 44  1  0  0  0  0
 20 21  1  0  0  0  0
 21 25  1  0  0  0  0
 22 21  2  0  0  0  0
 24 19  1  0  0  0  0
 24 23  2  0  0  0  0
 26 47  1  0  0  0  0
 27 48  1  0  0  0  0
 28 29  2  0  0  0  0
 28 14  1  0  0  0  0
 31  2  1  0  0  0  0
 32  2  1  0  0  0  0
 33  3  1  0  0  0  0
 34  4  1  0  0  0  0
 35 10  1  0  0  0  0
 39 15  1  0  0  0  0
 41 17  1  0  0  0  0
 43 17  1  0  0  0  0
 45 23  1  0  0  0  0
 46 24  1  0  0  0  0
M  END
>  <Pose>
1

>  <Score>
-4.29

$$$$
