
 OpenBabel10142115503D

 48 47  0  0  1  0  0  0  0  0999 V2000
   40.1470   46.6340   10.9850 C   0  0  0  0  0  0  0  0  0  0  0  0
   40.2900   45.3680   11.5310 C   0  0  0  0  0  0  0  0  0  0  0  0
   41.2180   45.0270   12.5520 C   0  0  0  0  0  0  0  0  0  0  0  0
   42.0780   46.0200   13.0750 C   0  0  0  0  0  0  0  0  0  0  0  0
   41.9390   47.2860   12.5340 C   0  0  0  0  0  0  0  0  0  0  0  0
   41.0140   47.5990   11.5260 C   0  0  0  0  0  0  0  0  0  0  0  0
   41.1830   49.0280   11.2290 C   0  0  0  0  0  0  0  0  0  0  0  0
   42.1690   49.4450   12.0620 C   0  0  0  0  0  0  0  0  0  0  0  0
   42.6050   48.4490   12.8120 N   0  0  0  0  0  0  0  0  0  0  0  0
   40.4620   49.8990   10.2380 C   0  0  0  0  0  0  0  0  0  0  0  0
   40.5140   51.3700   10.6700 C   0  0  1  0  0  0  0  0  0  0  0  0
   41.7480   51.7800   11.3490 N   0  0  0  0  0  0  0  0  0  0  0  0
   42.6210   50.8510   12.0460 C   0  0  2  0  0  0  0  0  0  0  0  0
   40.2880   53.6310    9.7820 N   0  0  0  0  0  0  0  0  0  0  0  0
   41.3150   54.0830   10.7210 C   0  0  0  0  0  0  0  0  0  0  0  0
   42.1340   53.0740   11.3920 C   0  0  0  0  0  0  0  0  0  0  0  0
   39.6710   54.5760    8.8710 C   0  0  0  0  0  0  0  0  0  0  0  0
   43.1280   53.4610   11.9530 O   0  0  0  0  0  0  0  0  0  0  0  0
   44.0740   50.7780   11.4590 C   0  0  0  0  0  0  0  0  0  0  0  0
   45.1850   50.7000   12.2820 C   0  0  0  0  0  0  0  0  0  0  0  0
   46.4520   50.6370   11.6980 C   0  0  0  0  0  0  0  0  0  0  0  0
   46.6210   50.6530   10.3490 C   0  0  0  0  0  0  0  0  0  0  0  0
   45.5520   50.7310    9.4850 C   0  0  0  0  0  0  0  0  0  0  0  0
   44.2980   50.7910   10.0540 C   0  0  0  0  0  0  0  0  0  0  0  0
   47.6500   50.5580   12.3620 O   0  0  0  0  0  0  0  0  0  0  0  0
   48.5430   50.2230   11.2580 C   0  0  0  0  0  0  0  0  0  0  0  0
   47.9430   50.5840   10.0180 O   0  0  0  0  0  0  0  0  0  0  0  0
   39.8900   52.3660    9.7440 C   0  0  0  0  0  0  0  0  0  0  0  0
   39.0200   51.9190    8.9770 O   0  0  0  0  0  0  0  0  0  0  0  0
   39.4620   46.8490   10.2440 H   0  0  0  0  0  0  0  0  0  0  0  0
   39.6790   44.6190   11.1700 H   0  0  0  0  0  0  0  0  0  0  0  0
   39.8450   46.0350   12.1810 H   0  0  0  0  0  0  0  0  0  0  0  0
   41.2640   44.0600   12.9090 H   0  0  0  0  0  0  0  0  0  0  0  0
   42.7670   45.8130   13.8150 H   0  0  0  0  0  0  0  0  0  0  0  0
   39.4410   49.5870   10.1750 H   0  0  0  0  0  0  0  0  0  0  0  0
   40.9400   49.8030    9.2860 H   0  0  0  0  0  0  0  0  0  0  0  0
   39.8020   51.3970   11.4680 H   0  0  0  0  0  0  0  0  0  0  0  0
   42.5980   51.2710   13.0300 H   0  0  0  0  0  0  0  0  0  0  0  0
   40.8200   54.6480   11.4840 H   0  0  0  0  0  0  0  0  0  0  0  0
   42.0090   54.6250   10.1130 H   0  0  0  0  0  0  0  0  0  0  0  0
   38.9490   54.0680    8.2650 H   0  0  0  0  0  0  0  0  0  0  0  0
   40.4220   55.0100    8.2440 H   0  0  0  0  0  0  0  0  0  0  0  0
   39.1860   55.3470    9.4320 H   0  0  0  0  0  0  0  0  0  0  0  0
   45.0790   50.6890   13.3090 H   0  0  0  0  0  0  0  0  0  0  0  0
   45.6830   50.7440    8.4620 H   0  0  0  0  0  0  0  0  0  0  0  0
   43.4800   50.8470    9.4290 H   0  0  0  0  0  0  0  0  0  0  0  0
   49.4730   49.7890   11.3600 H   0  0  0  0  0  0  0  0  0  0  0  0
   47.9320   50.8010   10.6580 H   0  0  0  0  0  0  0  0  0  0  0  0
  2 32  1  0  0  0  0
  2  3  1  0  0  0  0
  3 33  1  0  0  0  0
  3  4  2  0  0  0  0
  4 34  1  0  0  0  0
  5  9  1  0  0  0  0
  5  4  1  0  0  0  0
  6  5  2  0  0  0  0
  7  6  1  0  0  0  0
  7  8  2  0  0  0  0
  8  9  1  0  0  0  0
 10 11  1  0  0  0  0
 10  7  1  0  0  0  0
 11 12  1  0  0  0  0
 11 37  1  1  0  0  0
 12 16  1  0  0  0  0
 12 13  1  0  0  0  0
 13  8  1  0  0  0  0
 13 38  1  1  0  0  0
 14 15  1  0  0  0  0
 15 16  1  0  0  0  0
 15 39  1  0  0  0  0
 16 18  2  0  0  0  0
 17 43  1  0  0  0  0
 17 14  1  0  0  0  0
 19 13  1  0  0  0  0
 19 20  2  0  0  0  0
 20 44  1  0  0  0  0
 21 20  1  0  0  0  0
 21 25  1  0  0  0  0
 22 21  2  0  0  0  0
 23 24  2  0  0  0  0
 24 19  1  0  0  0  0
 26 47  1  0  0  0  0
 27 48  1  0  0  0  0
 28 14  1  0  0  0  0
 28 11  1  0  0  0  0
 29 28  2  0  0  0  0
 30  1  1  0  0  0  0
 31  2  1  0  0  0  0
 35 10  1  0  0  0  0
 36 10  1  0  0  0  0
 40 15  1  0  0  0  0
 41 17  1  0  0  0  0
 42 17  1  0  0  0  0
 45 23  1  0  0  0  0
 46 24  1  0  0  0  0
M  END
>  <Pose>
1

>  <Score>
-5.38

$$$$

 OpenBabel10142115503D

 48 47  0  0  1  0  0  0  0  0999 V2000
   38.7660   54.1150    8.4730 C   0  0  0  0  0  0  0  0  0  0  0  0
   38.6900   55.4200    8.0150 C   0  0  0  0  0  0  0  0  0  0  0  0
   39.5780   56.4630    8.3940 C   0  0  0  0  0  0  0  0  0  0  0  0
   40.6260   56.1950    9.3030 C   0  0  0  0  0  0  0  0  0  0  0  0
   40.7070   54.8920    9.7640 C   0  0  0  0  0  0  0  0  0  0  0  0
   39.8180   53.8780    9.3750 C   0  0  0  0  0  0  0  0  0  0  0  0
   40.2360   52.6580   10.0800 C   0  0  0  0  0  0  0  0  0  0  0  0
   41.3140   53.0320   10.8160 C   0  0  0  0  0  0  0  0  0  0  0  0
   41.5870   54.3110   10.6360 N   0  0  0  0  0  0  0  0  0  0  0  0
   39.6500   51.2750   10.0460 C   0  0  0  0  0  0  0  0  0  0  0  0
   40.7060   50.2280   10.4220 C   0  0  1  0  0  0  0  0  0  0  0  0
   41.6860   50.6590   11.4260 N   0  0  0  0  0  0  0  0  0  0  0  0
   42.0130   52.0530   11.6730 C   0  0  2  0  0  0  0  0  0  0  0  0
   40.9230   47.9400   11.2390 N   0  0  0  0  0  0  0  0  0  0  0  0
   42.1160   48.3380   11.9860 C   0  0  0  0  0  0  0  0  0  0  0  0
   42.3750   49.7670   12.1690 C   0  0  0  0  0  0  0  0  0  0  0  0
   40.4570   46.5670   11.2940 C   0  0  0  0  0  0  0  0  0  0  0  0
   43.2010   50.0710   12.9910 O   0  0  0  0  0  0  0  0  0  0  0  0
   41.6990   52.5320   13.1330 C   0  0  0  0  0  0  0  0  0  0  0  0
   42.3860   52.0290   14.2260 C   0  0  0  0  0  0  0  0  0  0  0  0
   42.0590   52.4980   15.5000 C   0  0  0  0  0  0  0  0  0  0  0  0
   41.0860   53.4280   15.6940 C   0  0  0  0  0  0  0  0  0  0  0  0
   40.3710   53.9590   14.6450 C   0  0  0  0  0  0  0  0  0  0  0  0
   40.6900   53.5040   13.3840 C   0  0  0  0  0  0  0  0  0  0  0  0
   42.6370   52.1080   16.6820 O   0  0  0  0  0  0  0  0  0  0  0  0
   42.1110   53.1280   17.5820 C   0  0  0  0  0  0  0  0  0  0  0  0
   40.9480   53.7250   17.0190 O   0  0  0  0  0  0  0  0  0  0  0  0
   40.2490   48.8050   10.4920 C   0  0  0  0  0  0  0  0  0  0  0  0
   39.2350   48.5310    9.8290 O   0  0  0  0  0  0  0  0  0  0  0  0
   38.1060   53.3790    8.1780 H   0  0  0  0  0  0  0  0  0  0  0  0
   37.9350   55.6510    7.3510 H   0  0  0  0  0  0  0  0  0  0  0  0
   39.4920   54.9040    7.6190 H   0  0  0  0  0  0  0  0  0  0  0  0
   39.4570   57.4120    8.0070 H   0  0  0  0  0  0  0  0  0  0  0  0
   41.2900   56.9250    9.6050 H   0  0  0  0  0  0  0  0  0  0  0  0
   39.2890   51.0710    9.0600 H   0  0  0  0  0  0  0  0  0  0  0  0
   38.8490   51.2240   10.7540 H   0  0  0  0  0  0  0  0  0  0  0  0
   41.3030   50.1810    9.5350 H   0  0  0  0  0  0  0  0  0  0  0  0
   43.0620   52.0410   11.4630 H   0  0  0  0  0  0  0  0  0  0  0  0
   42.9610   47.9260   11.4770 H   0  0  0  0  0  0  0  0  0  0  0  0
   41.9420   47.9730   12.9760 H   0  0  0  0  0  0  0  0  0  0  0  0
   39.5790   46.4640   10.6900 H   0  0  0  0  0  0  0  0  0  0  0  0
   40.2260   46.3090   12.3060 H   0  0  0  0  0  0  0  0  0  0  0  0
   41.2220   45.9160   10.9250 H   0  0  0  0  0  0  0  0  0  0  0  0
   43.1260   51.3210   14.1000 H   0  0  0  0  0  0  0  0  0  0  0  0
   39.6330   54.6640   14.7950 H   0  0  0  0  0  0  0  0  0  0  0  0
   40.1700   53.8880   12.5800 H   0  0  0  0  0  0  0  0  0  0  0  0
   42.5230   53.3810   18.4940 H   0  0  0  0  0  0  0  0  0  0  0  0
   41.2560   53.1230   17.0050 H   0  0  0  0  0  0  0  0  0  0  0  0
  2  3  1  0  0  0  0
  3  4  2  0  0  0  0
  4 34  1  0  0  0  0
  4  5  1  0  0  0  0
  5  9  1  0  0  0  0
  6  5  2  0  0  0  0
  6  7  1  0  0  0  0
  7  8  2  0  0  0  0
  8 13  1  0  0  0  0
  9  8  1  0  0  0  0
 10  7  1  0  0  0  0
 10 11  1  0  0  0  0
 10 36  1  0  0  0  0
 11 37  1  6  0  0  0
 11 28  1  0  0  0  0
 11 12  1  0  0  0  0
 12 13  1  0  0  0  0
 12 16  1  0  0  0  0
 13 38  1  6  0  0  0
 13 19  1  0  0  0  0
 14 17  1  0  0  0  0
 14 15  1  0  0  0  0
 15 16  1  0  0  0  0
 15 40  1  0  0  0  0
 16 18  2  0  0  0  0
 17 42  1  0  0  0  0
 19 24  1  0  0  0  0
 19 20  2  0  0  0  0
 20 21  1  0  0  0  0
 21 22  2  0  0  0  0
 21 25  1  0  0  0  0
 23 45  1  0  0  0  0
 24 23  2  0  0  0  0
 26 47  1  0  0  0  0
 28 14  1  0  0  0  0
 29 28  2  0  0  0  0
 30  1  1  0  0  0  0
 31  2  1  0  0  0  0
 32  2  1  0  0  0  0
 33  3  1  0  0  0  0
 35 10  1  0  0  0  0
 39 15  1  0  0  0  0
 41 17  1  0  0  0  0
 43 17  1  0  0  0  0
 44 20  1  0  0  0  0
 46 24  1  0  0  0  0
 48 27  1  0  0  0  0
M  END
>  <Pose>
1

>  <Score>
-5.29

$$$$

 OpenBabel10142115503D

 48 47  0  0  1  0  0  0  0  0999 V2000
   38.9720   54.2060    8.4260 C   0  0  0  0  0  0  0  0  0  0  0  0
   38.8870   55.4860    7.9020 C   0  0  0  0  0  0  0  0  0  0  0  0
   39.8320   56.5210    8.1340 C   0  0  0  0  0  0  0  0  0  0  0  0
   40.9560   56.2700    8.9540 C   0  0  0  0  0  0  0  0  0  0  0  0
   41.0480   54.9930    9.4800 C   0  0  0  0  0  0  0  0  0  0  0  0
   40.1010   53.9870    9.2350 C   0  0  0  0  0  0  0  0  0  0  0  0
   40.5540   52.7960    9.9680 C   0  0  0  0  0  0  0  0  0  0  0  0
   41.7060   53.1760   10.5750 C   0  0  0  0  0  0  0  0  0  0  0  0
   41.9930   54.4340   10.2970 N   0  0  0  0  0  0  0  0  0  0  0  0
   39.9310   51.4320   10.0690 C   0  0  0  0  0  0  0  0  0  0  0  0
   40.9920   50.3740   10.4030 C   0  0  1  0  0  0  0  0  0  0  0  0
   42.0740   50.8290   11.2830 N   0  0  0  0  0  0  0  0  0  0  0  0
   42.4590   52.2240   11.4170 C   0  0  2  0  0  0  0  0  0  0  0  0
   41.2280   48.1300   11.3260 N   0  0  0  0  0  0  0  0  0  0  0  0
   42.4970   48.5310   11.9330 C   0  0  0  0  0  0  0  0  0  0  0  0
   42.8090   49.9590   12.0070 C   0  0  0  0  0  0  0  0  0  0  0  0
   40.7340   46.7770   11.5040 C   0  0  0  0  0  0  0  0  0  0  0  0
   43.7180   50.2820   12.7290 O   0  0  0  0  0  0  0  0  0  0  0  0
   42.2990   52.7930   12.8700 C   0  0  0  0  0  0  0  0  0  0  0  0
   41.0540   52.9410   13.4580 C   0  0  0  0  0  0  0  0  0  0  0  0
   40.9790   53.4530   14.7550 C   0  0  0  0  0  0  0  0  0  0  0  0
   42.0920   53.8110   15.4500 C   0  0  0  0  0  0  0  0  0  0  0  0
   43.3530   53.6860   14.9130 C   0  0  0  0  0  0  0  0  0  0  0  0
   43.4350   53.1790   13.6350 C   0  0  0  0  0  0  0  0  0  0  0  0
   39.8340   53.6640   15.4810 O   0  0  0  0  0  0  0  0  0  0  0  0
   40.3990   53.9060   16.8030 C   0  0  0  0  0  0  0  0  0  0  0  0
   41.7670   54.2830   16.6880 O   0  0  0  0  0  0  0  0  0  0  0  0
   40.5070   48.9730   10.5980 C   0  0  0  0  0  0  0  0  0  0  0  0
   39.4270   48.6940   10.0510 O   0  0  0  0  0  0  0  0  0  0  0  0
   38.2680   53.4760    8.2370 H   0  0  0  0  0  0  0  0  0  0  0  0
   38.0770   55.7040    7.3000 H   0  0  0  0  0  0  0  0  0  0  0  0
   39.6320   54.9240    7.4620 H   0  0  0  0  0  0  0  0  0  0  0  0
   39.7000   57.4500    7.7060 H   0  0  0  0  0  0  0  0  0  0  0  0
   41.6650   56.9950    9.1490 H   0  0  0  0  0  0  0  0  0  0  0  0
   39.4720   51.1850    9.1350 H   0  0  0  0  0  0  0  0  0  0  0  0
   39.2010   51.4440   10.8510 H   0  0  0  0  0  0  0  0  0  0  0  0
   41.4990   50.2600    9.4680 H   0  0  0  0  0  0  0  0  0  0  0  0
   43.4820   52.1690   11.1100 H   0  0  0  0  0  0  0  0  0  0  0  0
   43.2790   48.0650   11.3700 H   0  0  0  0  0  0  0  0  0  0  0  0
   42.4100   48.2260   12.9550 H   0  0  0  0  0  0  0  0  0  0  0  0
   39.8000   46.6680   10.9940 H   0  0  0  0  0  0  0  0  0  0  0  0
   40.5950   46.5820   12.5470 H   0  0  0  0  0  0  0  0  0  0  0  0
   41.4430   46.0830   11.1030 H   0  0  0  0  0  0  0  0  0  0  0  0
   40.1970   52.6780   12.9470 H   0  0  0  0  0  0  0  0  0  0  0  0
   44.1960   53.9600   15.4420 H   0  0  0  0  0  0  0  0  0  0  0  0
   44.3700   53.0730   13.2100 H   0  0  0  0  0  0  0  0  0  0  0  0
   39.8830   53.8160   17.6930 H   0  0  0  0  0  0  0  0  0  0  0  0
   41.2010   54.3430   16.3230 H   0  0  0  0  0  0  0  0  0  0  0  0
  2  3  1  0  0  0  0
  3  4  2  0  0  0  0
  4 34  1  0  0  0  0
  4  5  1  0  0  0  0
  5  9  1  0  0  0  0
  6  5  2  0  0  0  0
  6  7  1  0  0  0  0
  7 10  1  0  0  0  0
  7  8  2  0  0  0  0
  8 13  1  0  0  0  0
  9  8  1  0  0  0  0
 10 11  1  0  0  0  0
 10 36  1  0  0  0  0
 11 37  1  6  0  0  0
 11 28  1  0  0  0  0
 11 12  1  0  0  0  0
 12 13  1  0  0  0  0
 12 16  1  0  0  0  0
 13 38  1  6  0  0  0
 13 19  1  0  0  0  0
 14 17  1  0  0  0  0
 14 15  1  0  0  0  0
 15 16  1  0  0  0  0
 15 40  1  0  0  0  0
 16 18  2  0  0  0  0
 17 42  1  0  0  0  0
 19 20  2  0  0  0  0
 19 24  1  0  0  0  0
 20 21  1  0  0  0  0
 21 22  2  0  0  0  0
 21 25  1  0  0  0  0
 23 45  1  0  0  0  0
 24 23  2  0  0  0  0
 26 47  1  0  0  0  0
 28 14  1  0  0  0  0
 29 28  2  0  0  0  0
 30  1  1  0  0  0  0
 31  2  1  0  0  0  0
 32  2  1  0  0  0  0
 33  3  1  0  0  0  0
 35 10  1  0  0  0  0
 39 15  1  0  0  0  0
 41 17  1  0  0  0  0
 43 17  1  0  0  0  0
 44 20  1  0  0  0  0
 46 24  1  0  0  0  0
 48 27  1  0  0  0  0
M  END
>  <Pose>
2

>  <Score>
-5.19

$$$$

 OpenBabel10142115503D

 48 47  0  0  1  0  0  0  0  0999 V2000
   42.6450   55.4500   15.4640 C   0  0  0  0  0  0  0  0  0  0  0  0
   41.6850   55.6890   16.4340 C   0  0  0  0  0  0  0  0  0  0  0  0
   40.9120   54.6820   17.0730 C   0  0  0  0  0  0  0  0  0  0  0  0
   41.1040   53.3260   16.7230 C   0  0  0  0  0  0  0  0  0  0  0  0
   42.0620   53.0810   15.7540 C   0  0  0  0  0  0  0  0  0  0  0  0
   42.8130   54.0930   15.1380 C   0  0  0  0  0  0  0  0  0  0  0  0
   43.7070   53.4290   14.1780 C   0  0  0  0  0  0  0  0  0  0  0  0
   43.4250   52.1060   14.2960 C   0  0  0  0  0  0  0  0  0  0  0  0
   42.4840   51.9030   15.1990 N   0  0  0  0  0  0  0  0  0  0  0  0
   44.7260   54.0160   13.2430 C   0  0  0  0  0  0  0  0  0  0  0  0
   45.8040   52.9810   12.8960 C   0  0  1  0  0  0  0  0  0  0  0  0
   45.3340   51.5950   12.8010 N   0  0  0  0  0  0  0  0  0  0  0  0
   44.1390   51.1110   13.4700 C   0  0  2  0  0  0  0  0  0  0  0  0
   47.5080   52.4850   11.2230 N   0  0  0  0  0  0  0  0  0  0  0  0
   47.2370   51.0580   11.3950 C   0  0  0  0  0  0  0  0  0  0  0  0
   46.0160   50.6640   12.1000 C   0  0  0  0  0  0  0  0  0  0  0  0
   48.5200   52.9230   10.2790 C   0  0  0  0  0  0  0  0  0  0  0  0
   45.6810   49.5110   12.0080 O   0  0  0  0  0  0  0  0  0  0  0  0
   43.0380   50.5670   12.4940 C   0  0  0  0  0  0  0  0  0  0  0  0
   42.6170   49.2480   12.5390 C   0  0  0  0  0  0  0  0  0  0  0  0
   41.6330   48.8250   11.6430 C   0  0  0  0  0  0  0  0  0  0  0  0
   41.0820   49.6700   10.7320 C   0  0  0  0  0  0  0  0  0  0  0  0
   41.4650   50.9890   10.6420 C   0  0  0  0  0  0  0  0  0  0  0  0
   42.4340   51.4150   11.5250 C   0  0  0  0  0  0  0  0  0  0  0  0
   41.1050   47.5610   11.5520 O   0  0  0  0  0  0  0  0  0  0  0  0
   39.9600   47.8150   10.6850 C   0  0  0  0  0  0  0  0  0  0  0  0
   40.1490   49.0300    9.9700 O   0  0  0  0  0  0  0  0  0  0  0  0
   46.8560   53.4070   11.9200 C   0  0  0  0  0  0  0  0  0  0  0  0
   47.0420   54.6310   11.8260 O   0  0  0  0  0  0  0  0  0  0  0  0
   43.1900   56.2050   15.0180 H   0  0  0  0  0  0  0  0  0  0  0  0
   41.5180   56.6680   16.7120 H   0  0  0  0  0  0  0  0  0  0  0  0
   42.5390   55.2540   16.8160 H   0  0  0  0  0  0  0  0  0  0  0  0
   40.2160   54.9390   17.7890 H   0  0  0  0  0  0  0  0  0  0  0  0
   40.5620   52.5650   17.1620 H   0  0  0  0  0  0  0  0  0  0  0  0
   45.1870   54.8600   13.7110 H   0  0  0  0  0  0  0  0  0  0  0  0
   44.2330   54.3140   12.3410 H   0  0  0  0  0  0  0  0  0  0  0  0
   46.3900   52.9570   13.7910 H   0  0  0  0  0  0  0  0  0  0  0  0
   44.5620   50.3410   14.0800 H   0  0  0  0  0  0  0  0  0  0  0  0
   48.0620   50.6410   11.9340 H   0  0  0  0  0  0  0  0  0  0  0  0
   47.0960   50.6940   10.3990 H   0  0  0  0  0  0  0  0  0  0  0  0
   48.5780   53.9910   10.2890 H   0  0  0  0  0  0  0  0  0  0  0  0
   48.2600   52.5890    9.2970 H   0  0  0  0  0  0  0  0  0  0  0  0
   49.4680   52.5110   10.5570 H   0  0  0  0  0  0  0  0  0  0  0  0
   43.0230   48.5890   13.2220 H   0  0  0  0  0  0  0  0  0  0  0  0
   41.0470   51.6280    9.9480 H   0  0  0  0  0  0  0  0  0  0  0  0
   42.7370   52.4000   11.4800 H   0  0  0  0  0  0  0  0  0  0  0  0
   39.1330   47.2020   10.6030 H   0  0  0  0  0  0  0  0  0  0  0  0
   40.5350   48.5380   10.2250 H   0  0  0  0  0  0  0  0  0  0  0  0
  2 31  1  0  0  0  0
  2 32  1  0  0  0  0
  2  3  1  0  0  0  0
  3 33  1  0  0  0  0
  4  3  2  0  0  0  0
  4 34  1  0  0  0  0
  5  4  1  0  0  0  0
  6  5  2  0  0  0  0
  7  8  2  0  0  0  0
  7  6  1  0  0  0  0
  8  9  1  0  0  0  0
  9  5  1  0  0  0  0
 10 35  1  0  0  0  0
 10  7  1  0  0  0  0
 11 10  1  0  0  0  0
 11 37  1  1  0  0  0
 12 11  1  0  0  0  0
 12 13  1  0  0  0  0
 13 38  1  1  0  0  0
 13  8  1  0  0  0  0
 14 15  1  0  0  0  0
 14 28  1  0  0  0  0
 15 39  1  0  0  0  0
 15 16  1  0  0  0  0
 16 12  1  0  0  0  0
 17 41  1  0  0  0  0
 17 43  1  0  0  0  0
 17 14  1  0  0  0  0
 18 16  2  0  0  0  0
 19 20  2  0  0  0  0
 19 13  1  0  0  0  0
 20 44  1  0  0  0  0
 21 20  1  0  0  0  0
 22 21  2  0  0  0  0
 23 24  2  0  0  0  0
 24 19  1  0  0  0  0
 25 21  1  0  0  0  0
 27 48  1  0  0  0  0
 28 11  1  0  0  0  0
 29 28  2  0  0  0  0
 30  1  1  0  0  0  0
 36 10  1  0  0  0  0
 40 15  1  0  0  0  0
 42 17  1  0  0  0  0
 45 23  1  0  0  0  0
 46 24  1  0  0  0  0
 47 26  1  0  0  0  0
M  END
>  <Pose>
1

>  <Score>
-4.95

$$$$
