
 OpenBabel10142115503D

 48 47  0  0  1  0  0  0  0  0999 V2000
   35.5530   25.0970   35.2490 C   0  0  0  0  0  0  0  0  0  0  0  0
   35.6900   23.8010   34.7790 C   0  0  0  0  0  0  0  0  0  0  0  0
   36.6740   23.3790   33.8450 C   0  0  0  0  0  0  0  0  0  0  0  0
   37.5990   24.3160   33.3310 C   0  0  0  0  0  0  0  0  0  0  0  0
   37.4670   25.6130   33.7980 C   0  0  0  0  0  0  0  0  0  0  0  0
   36.4870   26.0060   34.7220 C   0  0  0  0  0  0  0  0  0  0  0  0
   36.6790   27.4450   34.9530 C   0  0  0  0  0  0  0  0  0  0  0  0
   37.7320   27.7870   34.1690 C   0  0  0  0  0  0  0  0  0  0  0  0
   38.1880   26.7400   33.5070 N   0  0  0  0  0  0  0  0  0  0  0  0
   35.9180   28.3890   35.8410 C   0  0  0  0  0  0  0  0  0  0  0  0
   36.7910   29.5880   36.2320 C   0  0  1  0  0  0  0  0  0  0  0  0
   37.7330   30.0400   35.2020 N   0  0  0  0  0  0  0  0  0  0  0  0
   38.2210   29.1810   34.1370 C   0  0  2  0  0  0  0  0  0  0  0  0
   36.6320   31.8810   37.0480 N   0  0  0  0  0  0  0  0  0  0  0  0
   37.8020   32.2300   36.2420 C   0  0  0  0  0  0  0  0  0  0  0  0
   38.2340   31.2940   35.2040 C   0  0  0  0  0  0  0  0  0  0  0  0
   35.9840   32.8920   37.8630 C   0  0  0  0  0  0  0  0  0  0  0  0
   39.0230   31.7040   34.3910 O   0  0  0  0  0  0  0  0  0  0  0  0
   37.8550   29.6800   32.6960 C   0  0  0  0  0  0  0  0  0  0  0  0
   36.5410   29.7410   32.2620 C   0  0  0  0  0  0  0  0  0  0  0  0
   36.2810   30.1940   30.9670 C   0  0  0  0  0  0  0  0  0  0  0  0
   37.2790   30.5730   30.1260 C   0  0  0  0  0  0  0  0  0  0  0  0
   38.6010   30.5300   30.5050 C   0  0  0  0  0  0  0  0  0  0  0  0
   38.8660   30.0870   31.7820 C   0  0  0  0  0  0  0  0  0  0  0  0
   35.0450   30.3160   30.3810 O   0  0  0  0  0  0  0  0  0  0  0  0
   35.3900   31.0950   29.1980 C   0  0  0  0  0  0  0  0  0  0  0  0
   36.7810   30.9750   28.9210 O   0  0  0  0  0  0  0  0  0  0  0  0
   36.1430   30.6480   37.0670 C   0  0  0  0  0  0  0  0  0  0  0  0
   35.1600   30.2850   37.7330 O   0  0  0  0  0  0  0  0  0  0  0  0
   34.8270   25.3720   35.9290 H   0  0  0  0  0  0  0  0  0  0  0  0
   35.0300   23.0910   35.1320 H   0  0  0  0  0  0  0  0  0  0  0  0
   36.4450   24.0720   35.4290 H   0  0  0  0  0  0  0  0  0  0  0  0
   36.7140   22.3930   33.5440 H   0  0  0  0  0  0  0  0  0  0  0  0
   38.3270   24.0510   32.6500 H   0  0  0  0  0  0  0  0  0  0  0  0
   35.6150   27.8710   36.7270 H   0  0  0  0  0  0  0  0  0  0  0  0
   35.0620   28.7460   35.3080 H   0  0  0  0  0  0  0  0  0  0  0  0
   37.4470   29.1610   36.9620 H   0  0  0  0  0  0  0  0  0  0  0  0
   39.2730   29.2210   34.3290 H   0  0  0  0  0  0  0  0  0  0  0  0
   38.6240   32.3580   36.9150 H   0  0  0  0  0  0  0  0  0  0  0  0
   37.5000   33.1030   35.7010 H   0  0  0  0  0  0  0  0  0  0  0  0
   35.1540   32.4570   38.3780 H   0  0  0  0  0  0  0  0  0  0  0  0
   35.6380   33.6870   37.2360 H   0  0  0  0  0  0  0  0  0  0  0  0
   36.6830   33.2780   38.5750 H   0  0  0  0  0  0  0  0  0  0  0  0
   35.7680   29.4560   32.8840 H   0  0  0  0  0  0  0  0  0  0  0  0
   39.3580   30.8170   29.8640 H   0  0  0  0  0  0  0  0  0  0  0  0
   39.8500   30.0480   32.0920 H   0  0  0  0  0  0  0  0  0  0  0  0
   34.7220   31.6530   28.6420 H   0  0  0  0  0  0  0  0  0  0  0  0
   36.2930   30.5960   29.1960 H   0  0  0  0  0  0  0  0  0  0  0  0
  1 30  1  0  0  0  0
  2 31  1  0  0  0  0
  2 32  1  0  0  0  0
  3  2  1  0  0  0  0
  4  5  1  0  0  0  0
  4  3  2  0  0  0  0
  5  6  1  0  0  0  0
  6  7  1  0  0  0  0
  7 10  1  0  0  0  0
  8  7  2  0  0  0  0
  9  5  2  0  0  0  0
  9  8  1  0  0  0  0
 10 11  1  0  0  0  0
 10 35  1  0  0  0  0
 11 37  1  1  0  0  0
 11 28  1  0  0  0  0
 12 16  1  0  0  0  0
 12 11  1  0  0  0  0
 13  8  1  0  0  0  0
 13 38  1  1  0  0  0
 13 12  1  0  0  0  0
 14 28  1  0  0  0  0
 14 17  1  0  0  0  0
 15 39  1  0  0  0  0
 15 14  1  0  0  0  0
 16 15  1  0  0  0  0
 17 41  1  0  0  0  0
 17 43  1  0  0  0  0
 18 16  2  0  0  0  0
 19 13  1  0  0  0  0
 20 19  2  0  0  0  0
 20 44  1  0  0  0  0
 21 20  1  0  0  0  0
 22 21  2  0  0  0  0
 23 24  2  0  0  0  0
 24 46  1  0  0  0  0
 24 19  1  0  0  0  0
 25 21  1  0  0  0  0
 27 48  1  0  0  0  0
 28 29  2  0  0  0  0
 33  3  1  0  0  0  0
 34  4  1  0  0  0  0
 36 10  1  0  0  0  0
 40 15  1  0  0  0  0
 42 17  1  0  0  0  0
 45 23  1  0  0  0  0
 47 26  1  0  0  0  0
M  END
>  <Pose>
2

>  <Score>
-4.05

$$$$

 OpenBabel10142115503D

 48 47  0  0  1  0  0  0  0  0999 V2000
   35.6280   25.0590   35.1450 C   0  0  0  0  0  0  0  0  0  0  0  0
   35.7340   23.7500   34.7060 C   0  0  0  0  0  0  0  0  0  0  0  0
   36.7010   23.2840   33.7750 C   0  0  0  0  0  0  0  0  0  0  0  0
   37.6410   24.1880   33.2320 C   0  0  0  0  0  0  0  0  0  0  0  0
   37.5410   25.4990   33.6670 C   0  0  0  0  0  0  0  0  0  0  0  0
   36.5760   25.9340   34.5880 C   0  0  0  0  0  0  0  0  0  0  0  0
   36.8010   27.3740   34.7830 C   0  0  0  0  0  0  0  0  0  0  0  0
   37.8550   27.6750   33.9830 C   0  0  0  0  0  0  0  0  0  0  0  0
   38.2830   26.6020   33.3430 N   0  0  0  0  0  0  0  0  0  0  0  0
   36.0680   28.3560   35.6530 C   0  0  0  0  0  0  0  0  0  0  0  0
   36.9690   29.5460   36.0080 C   0  0  1  0  0  0  0  0  0  0  0  0
   37.9120   29.9510   34.9600 N   0  0  0  0  0  0  0  0  0  0  0  0
   38.3730   29.0570   33.9130 C   0  0  2  0  0  0  0  0  0  0  0  0
   36.8660   31.8600   36.7680 N   0  0  0  0  0  0  0  0  0  0  0  0
   38.0360   32.1650   35.9450 C   0  0  0  0  0  0  0  0  0  0  0  0
   38.4390   31.1940   34.9270 C   0  0  0  0  0  0  0  0  0  0  0  0
   36.2460   32.9050   37.5630 C   0  0  0  0  0  0  0  0  0  0  0  0
   39.2300   31.5680   34.0990 O   0  0  0  0  0  0  0  0  0  0  0  0
   38.0060   29.5280   32.4630 C   0  0  0  0  0  0  0  0  0  0  0  0
   38.8910   29.3830   31.4070 C   0  0  0  0  0  0  0  0  0  0  0  0
   38.5040   29.8230   30.1400 C   0  0  0  0  0  0  0  0  0  0  0  0
   37.2880   30.3890   29.9180 C   0  0  0  0  0  0  0  0  0  0  0  0
   36.3710   30.5580   30.9300 C   0  0  0  0  0  0  0  0  0  0  0  0
   36.7450   30.1240   32.1840 C   0  0  0  0  0  0  0  0  0  0  0  0
   39.2540   29.7560   28.9920 O   0  0  0  0  0  0  0  0  0  0  0  0
   38.2380   30.0700   27.9940 C   0  0  0  0  0  0  0  0  0  0  0  0
   37.1400   30.7380   28.6070 O   0  0  0  0  0  0  0  0  0  0  0  0
   36.3510   30.6390   36.8210 C   0  0  0  0  0  0  0  0  0  0  0  0
   35.3650   30.3140   37.5030 O   0  0  0  0  0  0  0  0  0  0  0  0
   34.9130   25.3660   35.8240 H   0  0  0  0  0  0  0  0  0  0  0  0
   35.0610   23.0630   35.0810 H   0  0  0  0  0  0  0  0  0  0  0  0
   36.4990   24.0200   35.3430 H   0  0  0  0  0  0  0  0  0  0  0  0
   36.7170   22.2900   33.4970 H   0  0  0  0  0  0  0  0  0  0  0  0
   38.3580   23.8910   32.5520 H   0  0  0  0  0  0  0  0  0  0  0  0
   35.7610   27.8660   36.5530 H   0  0  0  0  0  0  0  0  0  0  0  0
   35.2150   28.7190   35.1180 H   0  0  0  0  0  0  0  0  0  0  0  0
   37.6210   29.1220   36.7430 H   0  0  0  0  0  0  0  0  0  0  0  0
   39.4270   29.0780   34.0960 H   0  0  0  0  0  0  0  0  0  0  0  0
   38.8660   32.2910   36.6090 H   0  0  0  0  0  0  0  0  0  0  0  0
   37.7480   33.0300   35.3860 H   0  0  0  0  0  0  0  0  0  0  0  0
   35.4100   32.5000   38.0950 H   0  0  0  0  0  0  0  0  0  0  0  0
   35.9120   33.6920   36.9190 H   0  0  0  0  0  0  0  0  0  0  0  0
   36.9590   33.2930   38.2600 H   0  0  0  0  0  0  0  0  0  0  0  0
   39.8200   28.9590   31.5550 H   0  0  0  0  0  0  0  0  0  0  0  0
   35.4500   30.9890   30.7590 H   0  0  0  0  0  0  0  0  0  0  0  0
   36.0750   30.2380   32.9600 H   0  0  0  0  0  0  0  0  0  0  0  0
   38.3040   29.8410   26.9900 H   0  0  0  0  0  0  0  0  0  0  0  0
   37.8080   30.6860   28.7010 H   0  0  0  0  0  0  0  0  0  0  0  0
  1 30  1  0  0  0  0
  2 31  1  0  0  0  0
  2 32  1  0  0  0  0
  3  2  1  0  0  0  0
  4  5  1  0  0  0  0
  4  3  2  0  0  0  0
  5  6  1  0  0  0  0
  6  7  1  0  0  0  0
  7 10  1  0  0  0  0
  8  7  2  0  0  0  0
  9  5  2  0  0  0  0
  9  8  1  0  0  0  0
 10 11  1  0  0  0  0
 10 35  1  0  0  0  0
 11 37  1  1  0  0  0
 11 28  1  0  0  0  0
 12 11  1  0  0  0  0
 13  8  1  0  0  0  0
 13 38  1  1  0  0  0
 13 12  1  0  0  0  0
 14 28  1  0  0  0  0
 14 17  1  0  0  0  0
 15 39  1  0  0  0  0
 15 14  1  0  0  0  0
 16 12  1  0  0  0  0
 16 15  1  0  0  0  0
 17 41  1  0  0  0  0
 17 43  1  0  0  0  0
 18 16  2  0  0  0  0
 19 13  1  0  0  0  0
 20 44  1  0  0  0  0
 20 19  2  0  0  0  0
 21 20  1  0  0  0  0
 22 21  2  0  0  0  0
 23 24  2  0  0  0  0
 24 19  1  0  0  0  0
 24 46  1  0  0  0  0
 25 21  1  0  0  0  0
 27 48  1  0  0  0  0
 28 29  2  0  0  0  0
 33  3  1  0  0  0  0
 34  4  1  0  0  0  0
 36 10  1  0  0  0  0
 40 15  1  0  0  0  0
 42 17  1  0  0  0  0
 45 23  1  0  0  0  0
 47 26  1  0  0  0  0
M  END
>  <Pose>
1

>  <Score>
-3.99

$$$$

 OpenBabel10142115503D

 48 47  0  0  1  0  0  0  0  0999 V2000
   37.7190   31.6940   36.0570 C   0  0  0  0  0  0  0  0  0  0  0  0
   38.1350   31.9700   37.3500 C   0  0  0  0  0  0  0  0  0  0  0  0
   39.3530   31.5140   37.9230 C   0  0  0  0  0  0  0  0  0  0  0  0
   40.2320   30.7160   37.1550 C   0  0  0  0  0  0  0  0  0  0  0  0
   39.8210   30.4380   35.8620 C   0  0  0  0  0  0  0  0  0  0  0  0
   38.6140   30.9010   35.3180 C   0  0  0  0  0  0  0  0  0  0  0  0
   38.5500   30.3900   33.9410 C   0  0  0  0  0  0  0  0  0  0  0  0
   39.6950   29.6820   33.7770 C   0  0  0  0  0  0  0  0  0  0  0  0
   40.4280   29.7080   34.8750 N   0  0  0  0  0  0  0  0  0  0  0  0
   37.4860   30.5700   32.8950 C   0  0  0  0  0  0  0  0  0  0  0  0
   38.0750   30.4040   31.4880 C   0  0  1  0  0  0  0  0  0  0  0  0
   39.1540   29.4170   31.3730 N   0  0  0  0  0  0  0  0  0  0  0  0
   39.9830   29.0080   32.4940 C   0  0  2  0  0  0  0  0  0  0  0  0
   37.4240   29.9130   29.1900 N   0  0  0  0  0  0  0  0  0  0  0  0
   38.6860   29.1970   29.0030 C   0  0  0  0  0  0  0  0  0  0  0  0
   39.4650   28.8440   30.1910 C   0  0  0  0  0  0  0  0  0  0  0  0
   36.4760   30.0100   28.0950 C   0  0  0  0  0  0  0  0  0  0  0  0
   40.3520   28.0430   30.0440 O   0  0  0  0  0  0  0  0  0  0  0  0
   39.8860   27.4810   32.8370 C   0  0  0  0  0  0  0  0  0  0  0  0
   38.6740   26.8100   32.8240 C   0  0  0  0  0  0  0  0  0  0  0  0
   38.6540   25.4490   33.1380 C   0  0  0  0  0  0  0  0  0  0  0  0
   39.7880   24.7710   33.4570 C   0  0  0  0  0  0  0  0  0  0  0  0
   41.0180   25.3890   33.4870 C   0  0  0  0  0  0  0  0  0  0  0  0
   41.0460   26.7300   33.1760 C   0  0  0  0  0  0  0  0  0  0  0  0
   37.5470   24.6390   33.1730 O   0  0  0  0  0  0  0  0  0  0  0  0
   38.1820   23.3280   33.2540 C   0  0  0  0  0  0  0  0  0  0  0  0
   39.5180   23.4610   33.7260 O   0  0  0  0  0  0  0  0  0  0  0  0
   37.1170   30.4940   30.3420 C   0  0  0  0  0  0  0  0  0  0  0  0
   36.0680   31.1210   30.5630 O   0  0  0  0  0  0  0  0  0  0  0  0
   36.8280   32.0420   35.6700 H   0  0  0  0  0  0  0  0  0  0  0  0
   37.5160   32.5480   37.9390 H   0  0  0  0  0  0  0  0  0  0  0  0
   38.6800   32.4810   36.6370 H   0  0  0  0  0  0  0  0  0  0  0  0
   39.5940   31.7630   38.8940 H   0  0  0  0  0  0  0  0  0  0  0  0
   41.1240   30.3640   37.5340 H   0  0  0  0  0  0  0  0  0  0  0  0
   37.0650   31.5500   32.9860 H   0  0  0  0  0  0  0  0  0  0  0  0
   36.7310   29.8260   33.0410 H   0  0  0  0  0  0  0  0  0  0  0  0
   38.6020   31.3260   31.3540 H   0  0  0  0  0  0  0  0  0  0  0  0
   40.9490   29.2840   32.1260 H   0  0  0  0  0  0  0  0  0  0  0  0
   39.3100   29.8090   28.3860 H   0  0  0  0  0  0  0  0  0  0  0  0
   38.3960   28.2540   28.5880 H   0  0  0  0  0  0  0  0  0  0  0  0
   35.6190   30.5650   28.4140 H   0  0  0  0  0  0  0  0  0  0  0  0
   36.1750   29.0280   27.7950 H   0  0  0  0  0  0  0  0  0  0  0  0
   36.9370   30.5090   27.2680 H   0  0  0  0  0  0  0  0  0  0  0  0
   37.8010   27.3070   32.5860 H   0  0  0  0  0  0  0  0  0  0  0  0
   41.8770   24.8720   33.7320 H   0  0  0  0  0  0  0  0  0  0  0  0
   41.9560   27.2160   33.1890 H   0  0  0  0  0  0  0  0  0  0  0  0
   37.7280   22.4350   33.0070 H   0  0  0  0  0  0  0  0  0  0  0  0
   38.9280   23.7820   33.8040 H   0  0  0  0  0  0  0  0  0  0  0  0
  2  3  1  0  0  0  0
  2 31  1  0  0  0  0
  3 33  1  0  0  0  0
  4 34  1  0  0  0  0
  4  3  2  0  0  0  0
  5  4  1  0  0  0  0
  6  5  1  0  0  0  0
  7  6  1  0  0  0  0
  8  7  2  0  0  0  0
  8  9  1  0  0  0  0
  9  5  2  0  0  0  0
 10 35  1  0  0  0  0
 10 36  1  0  0  0  0
 10  7  1  0  0  0  0
 11 37  1  6  0  0  0
 11 10  1  0  0  0  0
 12 11  1  0  0  0  0
 12 13  1  0  0  0  0
 13 38  1  6  0  0  0
 13 19  1  0  0  0  0
 13  8  1  0  0  0  0
 14 28  1  0  0  0  0
 15 14  1  0  0  0  0
 15 16  1  0  0  0  0
 16 12  1  0  0  0  0
 17 41  1  0  0  0  0
 17 14  1  0  0  0  0
 18 16  2  0  0  0  0
 19 24  1  0  0  0  0
 20 19  2  0  0  0  0
 20 21  1  0  0  0  0
 21 25  1  0  0  0  0
 21 22  2  0  0  0  0
 23 45  1  0  0  0  0
 24 46  1  0  0  0  0
 24 23  2  0  0  0  0
 27 48  1  0  0  0  0
 28 29  2  0  0  0  0
 28 11  1  0  0  0  0
 30  1  1  0  0  0  0
 32  2  1  0  0  0  0
 39 15  1  0  0  0  0
 40 15  1  0  0  0  0
 42 17  1  0  0  0  0
 43 17  1  0  0  0  0
 44 20  1  0  0  0  0
 47 26  1  0  0  0  0
M  END
>  <Pose>
1

>  <Score>
-3.76

$$$$

 OpenBabel10142115503D

 48 47  0  0  1  0  0  0  0  0999 V2000
   43.7210   30.4330   36.0970 C   0  0  0  0  0  0  0  0  0  0  0  0
   43.9450   31.6770   36.6660 C   0  0  0  0  0  0  0  0  0  0  0  0
   42.9360   32.6430   36.9230 C   0  0  0  0  0  0  0  0  0  0  0  0
   41.5930   32.3570   36.5890 C   0  0  0  0  0  0  0  0  0  0  0  0
   41.3620   31.1160   36.0210 C   0  0  0  0  0  0  0  0  0  0  0  0
   42.3760   30.1780   35.7770 C   0  0  0  0  0  0  0  0  0  0  0  0
   41.7290   29.0060   35.1700 C   0  0  0  0  0  0  0  0  0  0  0  0
   40.4130   29.3300   35.1020 C   0  0  0  0  0  0  0  0  0  0  0  0
   40.1980   30.5380   35.5900 N   0  0  0  0  0  0  0  0  0  0  0  0
   42.3250   27.7090   34.7020 C   0  0  0  0  0  0  0  0  0  0  0  0
   41.2720   26.5920   34.7110 C   0  0  1  0  0  0  0  0  0  0  0  0
   39.9090   27.0160   34.3730 N   0  0  0  0  0  0  0  0  0  0  0  0
   39.4340   28.3800   34.5350 C   0  0  2  0  0  0  0  0  0  0  0  0
   40.7990   24.4050   33.7430 N   0  0  0  0  0  0  0  0  0  0  0  0
   39.3750   24.7410   33.7230 C   0  0  0  0  0  0  0  0  0  0  0  0
   38.9900   26.1390   33.9140 C   0  0  0  0  0  0  0  0  0  0  0  0
   41.2470   23.1130   33.2570 C   0  0  0  0  0  0  0  0  0  0  0  0
   37.8540   26.4350   33.6420 O   0  0  0  0  0  0  0  0  0  0  0  0
   38.9760   29.0580   33.1970 C   0  0  0  0  0  0  0  0  0  0  0  0
   39.3790   28.5750   31.9630 C   0  0  0  0  0  0  0  0  0  0  0  0
   38.9350   29.2250   30.8090 C   0  0  0  0  0  0  0  0  0  0  0  0
   38.1250   30.3140   30.8660 C   0  0  0  0  0  0  0  0  0  0  0  0
   37.6960   30.8370   32.0650 C   0  0  0  0  0  0  0  0  0  0  0  0
   38.1270   30.2000   33.2080 C   0  0  0  0  0  0  0  0  0  0  0  0
   39.2380   28.8800   29.5160 O   0  0  0  0  0  0  0  0  0  0  0  0
   38.2750   29.7020   28.7910 C   0  0  0  0  0  0  0  0  0  0  0  0
   37.8280   30.7730   29.6160 O   0  0  0  0  0  0  0  0  0  0  0  0
   41.7080   25.2530   34.2080 C   0  0  0  0  0  0  0  0  0  0  0  0
   42.9280   25.0270   34.2590 O   0  0  0  0  0  0  0  0  0  0  0  0
   44.4770   29.7530   35.9240 H   0  0  0  0  0  0  0  0  0  0  0  0
   44.9160   31.9190   36.9200 H   0  0  0  0  0  0  0  0  0  0  0  0
   43.4640   31.0260   37.3060 H   0  0  0  0  0  0  0  0  0  0  0  0
   43.1820   33.5490   37.3520 H   0  0  0  0  0  0  0  0  0  0  0  0
   40.8300   33.0320   36.7580 H   0  0  0  0  0  0  0  0  0  0  0  0
   43.1300   27.4370   35.3540 H   0  0  0  0  0  0  0  0  0  0  0  0
   42.6830   27.8360   33.7020 H   0  0  0  0  0  0  0  0  0  0  0  0
   41.1850   26.3730   35.7540 H   0  0  0  0  0  0  0  0  0  0  0  0
   38.6220   28.2190   35.2120 H   0  0  0  0  0  0  0  0  0  0  0  0
   38.9050   24.1740   34.5000 H   0  0  0  0  0  0  0  0  0  0  0  0
   39.0640   24.5150   32.7250 H   0  0  0  0  0  0  0  0  0  0  0  0
   42.3110   23.0470   33.3480 H   0  0  0  0  0  0  0  0  0  0  0  0
   40.9690   23.0030   32.2290 H   0  0  0  0  0  0  0  0  0  0  0  0
   40.7900   22.3370   33.8340 H   0  0  0  0  0  0  0  0  0  0  0  0
   39.9960   27.7510   31.8980 H   0  0  0  0  0  0  0  0  0  0  0  0
   37.0810   31.6650   32.1060 H   0  0  0  0  0  0  0  0  0  0  0  0
   37.8170   30.5710   34.1210 H   0  0  0  0  0  0  0  0  0  0  0  0
   37.9640   29.5320   27.8220 H   0  0  0  0  0  0  0  0  0  0  0  0
   38.3900   30.4030   29.5390 H   0  0  0  0  0  0  0  0  0  0  0  0
  2 31  1  0  0  0  0
  2  3  1  0  0  0  0
  2 32  1  0  0  0  0
  3 33  1  0  0  0  0
  4 34  1  0  0  0  0
  4  3  2  0  0  0  0
  5  4  1  0  0  0  0
  6  5  1  0  0  0  0
  7  6  1  0  0  0  0
  8  7  2  0  0  0  0
  8  9  1  0  0  0  0
  9  5  2  0  0  0  0
 10 11  1  0  0  0  0
 10  7  1  0  0  0  0
 10 35  1  0  0  0  0
 11 37  1  1  0  0  0
 12 13  1  0  0  0  0
 12 11  1  0  0  0  0
 13  8  1  0  0  0  0
 13 38  1  1  0  0  0
 14 28  1  0  0  0  0
 15 14  1  0  0  0  0
 15 16  1  0  0  0  0
 15 39  1  0  0  0  0
 16 12  1  0  0  0  0
 17 41  1  0  0  0  0
 17 14  1  0  0  0  0
 17 43  1  0  0  0  0
 18 16  2  0  0  0  0
 19 24  1  0  0  0  0
 19 13  1  0  0  0  0
 20 19  2  0  0  0  0
 21 22  2  0  0  0  0
 21 20  1  0  0  0  0
 23 45  1  0  0  0  0
 23 24  2  0  0  0  0
 24 46  1  0  0  0  0
 25 21  1  0  0  0  0
 28 29  2  0  0  0  0
 28 11  1  0  0  0  0
 30  1  1  0  0  0  0
 36 10  1  0  0  0  0
 40 15  1  0  0  0  0
 42 17  1  0  0  0  0
 44 20  1  0  0  0  0
 47 26  1  0  0  0  0
 48 27  1  0  0  0  0
M  END
>  <Pose>
1

>  <Score>
-3.74

$$$$
