
 OpenBabel10142115503D

 48 47  0  0  1  0  0  0  0  0999 V2000
   43.7690   37.3120   12.4880 C   0  0  0  0  0  0  0  0  0  0  0  0
   42.9020   37.9300   11.6020 C   0  0  0  0  0  0  0  0  0  0  0  0
   42.8000   37.6190   10.2190 C   0  0  0  0  0  0  0  0  0  0  0  0
   43.6260   36.6150    9.6650 C   0  0  0  0  0  0  0  0  0  0  0  0
   44.4940   35.9930   10.5460 C   0  0  0  0  0  0  0  0  0  0  0  0
   44.5760   36.3170   11.9080 C   0  0  0  0  0  0  0  0  0  0  0  0
   45.6080   35.4440   12.4870 C   0  0  0  0  0  0  0  0  0  0  0  0
   46.0480   34.6880   11.4500 C   0  0  0  0  0  0  0  0  0  0  0  0
   45.4110   34.9980   10.3360 N   0  0  0  0  0  0  0  0  0  0  0  0
   46.1150   35.3560   13.8980 C   0  0  0  0  0  0  0  0  0  0  0  0
   46.7100   33.9690   14.1760 C   0  0  1  0  0  0  0  0  0  0  0  0
   47.3910   33.3410   13.0380 N   0  0  0  0  0  0  0  0  0  0  0  0
   47.1070   33.6790   11.6540 C   0  0  2  0  0  0  0  0  0  0  0  0
   48.2330   32.8100   15.6870 N   0  0  0  0  0  0  0  0  0  0  0  0
   48.6630   31.9620   14.5760 C   0  0  0  0  0  0  0  0  0  0  0  0
   48.3150   32.3720   13.2150 C   0  0  0  0  0  0  0  0  0  0  0  0
   48.8070   32.6240   17.0070 C   0  0  0  0  0  0  0  0  0  0  0  0
   48.8870   31.8150   12.3130 O   0  0  0  0  0  0  0  0  0  0  0  0
   48.3390   34.2560   10.8730 C   0  0  0  0  0  0  0  0  0  0  0  0
   48.8660   35.5030   11.1700 C   0  0  0  0  0  0  0  0  0  0  0  0
   49.9640   35.9600   10.4370 C   0  0  0  0  0  0  0  0  0  0  0  0
   50.5230   35.2180    9.4450 C   0  0  0  0  0  0  0  0  0  0  0  0
   50.0380   33.9750    9.1070 C   0  0  0  0  0  0  0  0  0  0  0  0
   48.9560   33.5150    9.8270 C   0  0  0  0  0  0  0  0  0  0  0  0
   50.6050   37.1620   10.6000 O   0  0  0  0  0  0  0  0  0  0  0  0
   51.8010   36.9350    9.7970 C   0  0  0  0  0  0  0  0  0  0  0  0
   51.5760   35.8730    8.8760 O   0  0  0  0  0  0  0  0  0  0  0  0
   47.3130   33.7530   15.5280 C   0  0  0  0  0  0  0  0  0  0  0  0
   46.9010   34.5010   16.4290 O   0  0  0  0  0  0  0  0  0  0  0  0
   43.8190   37.5600   13.4880 H   0  0  0  0  0  0  0  0  0  0  0  0
   42.2860   38.6700   11.9730 H   0  0  0  0  0  0  0  0  0  0  0  0
   42.6220   36.9620   11.8240 H   0  0  0  0  0  0  0  0  0  0  0  0
   42.1260   38.1240    9.6220 H   0  0  0  0  0  0  0  0  0  0  0  0
   43.5840   36.3610    8.6660 H   0  0  0  0  0  0  0  0  0  0  0  0
   45.3050   35.5320   14.5740 H   0  0  0  0  0  0  0  0  0  0  0  0
   46.8800   36.0910   14.0350 H   0  0  0  0  0  0  0  0  0  0  0  0
   45.8330   33.3630   14.2720 H   0  0  0  0  0  0  0  0  0  0  0  0
   46.8000   32.7230   11.2850 H   0  0  0  0  0  0  0  0  0  0  0  0
   48.2370   30.9930   14.7330 H   0  0  0  0  0  0  0  0  0  0  0  0
   49.7320   32.0140   14.6020 H   0  0  0  0  0  0  0  0  0  0  0  0
   48.3760   33.3290   17.6870 H   0  0  0  0  0  0  0  0  0  0  0  0
   49.8660   32.7750   16.9600 H   0  0  0  0  0  0  0  0  0  0  0  0
   48.6040   31.6300   17.3470 H   0  0  0  0  0  0  0  0  0  0  0  0
   48.4550   36.0820   11.9180 H   0  0  0  0  0  0  0  0  0  0  0  0
   50.4630   33.4150    8.3520 H   0  0  0  0  0  0  0  0  0  0  0  0
   48.5750   32.5850    9.5960 H   0  0  0  0  0  0  0  0  0  0  0  0
   52.6810   37.4660    9.8830 H   0  0  0  0  0  0  0  0  0  0  0  0
   51.2120   36.3550    9.1780 H   0  0  0  0  0  0  0  0  0  0  0  0
  1 30  1  0  0  0  0
  2 32  1  0  0  0  0
  2 31  1  0  0  0  0
  3  2  1  0  0  0  0
  4  3  2  0  0  0  0
  4  5  1  0  0  0  0
  5  6  1  0  0  0  0
  6  7  1  0  0  0  0
  7 10  1  0  0  0  0
  8 13  1  0  0  0  0
  8  7  2  0  0  0  0
  9  5  2  0  0  0  0
  9  8  1  0  0  0  0
 10 36  1  0  0  0  0
 10 11  1  0  0  0  0
 10 35  1  0  0  0  0
 11 37  1  1  0  0  0
 11 28  1  0  0  0  0
 12 16  1  0  0  0  0
 12 11  1  0  0  0  0
 13 38  1  6  0  0  0
 13 12  1  0  0  0  0
 14 17  1  0  0  0  0
 15 40  1  0  0  0  0
 15 39  1  0  0  0  0
 15 14  1  0  0  0  0
 16 15  1  0  0  0  0
 17 43  1  0  0  0  0
 17 41  1  0  0  0  0
 18 16  2  0  0  0  0
 19 20  2  0  0  0  0
 19 13  1  0  0  0  0
 20 44  1  0  0  0  0
 21 25  1  0  0  0  0
 21 20  1  0  0  0  0
 22 21  2  0  0  0  0
 23 24  2  0  0  0  0
 24 19  1  0  0  0  0
 26 47  1  0  0  0  0
 27 48  1  0  0  0  0
 28 14  1  0  0  0  0
 28 29  2  0  0  0  0
 33  3  1  0  0  0  0
 34  4  1  0  0  0  0
 42 17  1  0  0  0  0
 45 23  1  0  0  0  0
 46 24  1  0  0  0  0
M  END
>  <Pose>
5

>  <Score>
-7.24

$$$$
