
 OpenBabel10142115503D

 48 47  0  0  1  0  0  0  0  0999 V2000
   32.6730   17.9710   14.8920 C   0  0  0  0  0  0  0  0  0  0  0  0
   32.1220   19.2350   15.0300 C   0  0  0  0  0  0  0  0  0  0  0  0
   32.8550   20.4060   15.3620 C   0  0  0  0  0  0  0  0  0  0  0  0
   34.2490   20.3210   15.5770 C   0  0  0  0  0  0  0  0  0  0  0  0
   34.8060   19.0610   15.4400 C   0  0  0  0  0  0  0  0  0  0  0  0
   34.0610   17.9190   15.1110 C   0  0  0  0  0  0  0  0  0  0  0  0
   35.0090   16.7970   15.0680 C   0  0  0  0  0  0  0  0  0  0  0  0
   36.2140   17.3450   15.3660 C   0  0  0  0  0  0  0  0  0  0  0  0
   36.1020   18.6430   15.5790 N   0  0  0  0  0  0  0  0  0  0  0  0
   34.7700   15.3430   14.7690 C   0  0  0  0  0  0  0  0  0  0  0  0
   36.0510   14.6780   14.2490 C   0  0  1  0  0  0  0  0  0  0  0  0
   37.2990   15.1820   14.8330 N   0  0  0  0  0  0  0  0  0  0  0  0
   37.4280   16.5040   15.4200 C   0  0  2  0  0  0  0  0  0  0  0  0
   37.0960   12.4900   13.9840 N   0  0  0  0  0  0  0  0  0  0  0  0
   38.3980   13.0990   14.2530 C   0  0  0  0  0  0  0  0  0  0  0  0
   38.4300   14.4440   14.8280 C   0  0  0  0  0  0  0  0  0  0  0  0
   37.0010   11.0670   13.7130 C   0  0  0  0  0  0  0  0  0  0  0  0
   39.4820   14.8210   15.2780 O   0  0  0  0  0  0  0  0  0  0  0  0
   37.8160   16.4930   16.9400 C   0  0  0  0  0  0  0  0  0  0  0  0
   36.9640   15.9740   17.9020 C   0  0  0  0  0  0  0  0  0  0  0  0
   37.3680   15.9930   19.2380 C   0  0  0  0  0  0  0  0  0  0  0  0
   38.5680   16.5080   19.6170 C   0  0  0  0  0  0  0  0  0  0  0  0
   39.4510   17.0380   18.7040 C   0  0  0  0  0  0  0  0  0  0  0  0
   39.0610   17.0200   17.3820 C   0  0  0  0  0  0  0  0  0  0  0  0
   36.6520   15.5240   20.3110 O   0  0  0  0  0  0  0  0  0  0  0  0
   37.6820   15.5390   21.3430 C   0  0  0  0  0  0  0  0  0  0  0  0
   38.7370   16.4170   20.9680 O   0  0  0  0  0  0  0  0  0  0  0  0
   35.9810   13.2100   13.9690 C   0  0  0  0  0  0  0  0  0  0  0  0
   34.8470   12.7570   13.7410 O   0  0  0  0  0  0  0  0  0  0  0  0
   32.1130   17.1400   14.6490 H   0  0  0  0  0  0  0  0  0  0  0  0
   31.1050   19.3320   14.8810 H   0  0  0  0  0  0  0  0  0  0  0  0
   32.6920   19.1390   14.1750 H   0  0  0  0  0  0  0  0  0  0  0  0
   32.3710   21.3140   15.4440 H   0  0  0  0  0  0  0  0  0  0  0  0
   34.8170   21.1480   15.8220 H   0  0  0  0  0  0  0  0  0  0  0  0
   34.0040   15.2590   14.0270 H   0  0  0  0  0  0  0  0  0  0  0  0
   34.4700   14.8520   15.6710 H   0  0  0  0  0  0  0  0  0  0  0  0
   36.1080   15.0490   13.2480 H   0  0  0  0  0  0  0  0  0  0  0  0
   38.2020   16.9120   14.8030 H   0  0  0  0  0  0  0  0  0  0  0  0
   38.9270   13.1390   13.3240 H   0  0  0  0  0  0  0  0  0  0  0  0
   38.8290   12.4770   15.0110 H   0  0  0  0  0  0  0  0  0  0  0  0
   35.9780   10.8050   13.5410 H   0  0  0  0  0  0  0  0  0  0  0  0
   37.3740   10.5190   14.5530 H   0  0  0  0  0  0  0  0  0  0  0  0
   37.5810   10.8300   12.8460 H   0  0  0  0  0  0  0  0  0  0  0  0
   36.0480   15.5810   17.6350 H   0  0  0  0  0  0  0  0  0  0  0  0
   40.3600   17.4290   18.9940 H   0  0  0  0  0  0  0  0  0  0  0  0
   39.7060   17.4090   16.6770 H   0  0  0  0  0  0  0  0  0  0  0  0
   37.6500   14.9920   22.2180 H   0  0  0  0  0  0  0  0  0  0  0  0
   38.0700   16.3700   20.8710 H   0  0  0  0  0  0  0  0  0  0  0  0
  2  3  1  0  0  0  0
  3 33  1  0  0  0  0
  3  4  2  0  0  0  0
  4 34  1  0  0  0  0
  5  4  1  0  0  0  0
  5  9  1  0  0  0  0
  6  5  2  0  0  0  0
  7  6  1  0  0  0  0
  7  8  2  0  0  0  0
  8 13  1  0  0  0  0
  8  9  1  0  0  0  0
 10  7  1  0  0  0  0
 10 36  1  0  0  0  0
 11 37  1  6  0  0  0
 11 10  1  0  0  0  0
 11 12  1  0  0  0  0
 12 13  1  0  0  0  0
 13 38  1  6  0  0  0
 13 19  1  0  0  0  0
 14 15  1  0  0  0  0
 15 16  1  0  0  0  0
 15 40  1  0  0  0  0
 16 12  1  0  0  0  0
 16 18  2  0  0  0  0
 17 14  1  0  0  0  0
 17 42  1  0  0  0  0
 19 24  1  0  0  0  0
 19 20  2  0  0  0  0
 20 21  1  0  0  0  0
 21 22  2  0  0  0  0
 21 25  1  0  0  0  0
 23 45  1  0  0  0  0
 24 23  2  0  0  0  0
 26 47  1  0  0  0  0
 28 14  1  0  0  0  0
 28 11  1  0  0  0  0
 29 28  2  0  0  0  0
 30  1  1  0  0  0  0
 31  2  1  0  0  0  0
 32  2  1  0  0  0  0
 35 10  1  0  0  0  0
 39 15  1  0  0  0  0
 41 17  1  0  0  0  0
 43 17  1  0  0  0  0
 44 20  1  0  0  0  0
 46 24  1  0  0  0  0
 48 27  1  0  0  0  0
M  END
>  <Pose>
1

>  <Score>
-4.19

$$$$

 OpenBabel10142115503D

 48 47  0  0  1  0  0  0  0  0999 V2000
   39.6260   16.0260   19.2720 C   0  0  0  0  0  0  0  0  0  0  0  0
   39.4430   15.6960   20.6050 C   0  0  0  0  0  0  0  0  0  0  0  0
   38.2090   15.2800   21.1740 C   0  0  0  0  0  0  0  0  0  0  0  0
   37.0600   15.1840   20.3570 C   0  0  0  0  0  0  0  0  0  0  0  0
   37.2370   15.5110   19.0240 C   0  0  0  0  0  0  0  0  0  0  0  0
   38.4660   15.9190   18.4850 C   0  0  0  0  0  0  0  0  0  0  0  0
   38.2350   16.1750   17.0560 C   0  0  0  0  0  0  0  0  0  0  0  0
   36.9200   15.9060   16.8610 C   0  0  0  0  0  0  0  0  0  0  0  0
   36.3440   15.5240   17.9860 N   0  0  0  0  0  0  0  0  0  0  0  0
   39.1910   16.6350   15.9920 C   0  0  0  0  0  0  0  0  0  0  0  0
   38.7090   16.1960   14.6030 C   0  0  1  0  0  0  0  0  0  0  0  0
   37.2540   16.1820   14.4210 N   0  0  0  0  0  0  0  0  0  0  0  0
   36.3140   16.0560   15.5220 C   0  0  2  0  0  0  0  0  0  0  0  0
   38.9680   16.7240   12.2360 N   0  0  0  0  0  0  0  0  0  0  0  0
   37.5620   16.3790   12.0230 C   0  0  0  0  0  0  0  0  0  0  0  0
   36.6940   16.2550   13.1940 C   0  0  0  0  0  0  0  0  0  0  0  0
   39.7850   17.1600   11.1190 C   0  0  0  0  0  0  0  0  0  0  0  0
   35.5060   16.2280   12.9930 O   0  0  0  0  0  0  0  0  0  0  0  0
   35.3450   17.2790   15.6770 C   0  0  0  0  0  0  0  0  0  0  0  0
   34.0040   17.1090   15.9790 C   0  0  0  0  0  0  0  0  0  0  0  0
   33.1940   18.2390   16.1050 C   0  0  0  0  0  0  0  0  0  0  0  0
   33.6850   19.4960   15.9360 C   0  0  0  0  0  0  0  0  0  0  0  0
   35.0080   19.7220   15.6340 C   0  0  0  0  0  0  0  0  0  0  0  0
   35.8150   18.6120   15.5110 C   0  0  0  0  0  0  0  0  0  0  0  0
   31.8530   18.2500   16.3970 O   0  0  0  0  0  0  0  0  0  0  0  0
   31.6560   19.6660   16.6840 C   0  0  0  0  0  0  0  0  0  0  0  0
   32.7070   20.4320   16.1060 O   0  0  0  0  0  0  0  0  0  0  0  0
   39.5320   16.6390   13.4340 C   0  0  0  0  0  0  0  0  0  0  0  0
   40.7180   16.9100   13.6800 O   0  0  0  0  0  0  0  0  0  0  0  0
   40.5370   16.3240   18.8890 H   0  0  0  0  0  0  0  0  0  0  0  0
   40.2620   15.7570   21.2300 H   0  0  0  0  0  0  0  0  0  0  0  0
   39.4160   14.8730   19.9830 H   0  0  0  0  0  0  0  0  0  0  0  0
   38.1530   15.0490   22.1780 H   0  0  0  0  0  0  0  0  0  0  0  0
   36.1450   14.8870   20.7320 H   0  0  0  0  0  0  0  0  0  0  0  0
   40.1550   16.2100   16.1790 H   0  0  0  0  0  0  0  0  0  0  0  0
   39.2440   17.7030   16.0160 H   0  0  0  0  0  0  0  0  0  0  0  0
   38.9440   15.1520   14.6020 H   0  0  0  0  0  0  0  0  0  0  0  0
   35.8010   15.1620   15.2320 H   0  0  0  0  0  0  0  0  0  0  0  0
   37.5400   15.4400   11.5110 H   0  0  0  0  0  0  0  0  0  0  0  0
   37.1640   17.2150   11.4870 H   0  0  0  0  0  0  0  0  0  0  0  0
   40.7780   17.3670   11.4620 H   0  0  0  0  0  0  0  0  0  0  0  0
   39.3640   18.0470   10.6930 H   0  0  0  0  0  0  0  0  0  0  0  0
   39.8180   16.3890   10.3780 H   0  0  0  0  0  0  0  0  0  0  0  0
   33.6100   16.1630   16.1090 H   0  0  0  0  0  0  0  0  0  0  0  0
   35.3780   20.6770   15.5050 H   0  0  0  0  0  0  0  0  0  0  0  0
   36.8120   18.7540   15.2870 H   0  0  0  0  0  0  0  0  0  0  0  0
   30.8690   20.0560   17.2260 H   0  0  0  0  0  0  0  0  0  0  0  0
   32.3780   19.8570   15.9720 H   0  0  0  0  0  0  0  0  0  0  0  0
  2  3  1  0  0  0  0
  2 31  1  0  0  0  0
  3 33  1  0  0  0  0
  4 34  1  0  0  0  0
  4  3  2  0  0  0  0
  5  4  1  0  0  0  0
  6  5  1  0  0  0  0
  7  6  1  0  0  0  0
  8  7  2  0  0  0  0
  8  9  1  0  0  0  0
  9  5  2  0  0  0  0
 10 36  1  0  0  0  0
 10 35  1  0  0  0  0
 10  7  1  0  0  0  0
 11 37  1  1  0  0  0
 11 10  1  0  0  0  0
 12 11  1  0  0  0  0
 12 13  1  0  0  0  0
 13 38  1  6  0  0  0
 13 19  1  0  0  0  0
 13  8  1  0  0  0  0
 14 28  1  0  0  0  0
 15 14  1  0  0  0  0
 15 16  1  0  0  0  0
 16 12  1  0  0  0  0
 17 41  1  0  0  0  0
 17 14  1  0  0  0  0
 18 16  2  0  0  0  0
 19 20  2  0  0  0  0
 20 21  1  0  0  0  0
 20 44  1  0  0  0  0
 21 25  1  0  0  0  0
 22 21  2  0  0  0  0
 24 23  2  0  0  0  0
 24 19  1  0  0  0  0
 26 47  1  0  0  0  0
 28 29  2  0  0  0  0
 28 11  1  0  0  0  0
 30  1  1  0  0  0  0
 32  2  1  0  0  0  0
 39 15  1  0  0  0  0
 40 15  1  0  0  0  0
 42 17  1  0  0  0  0
 43 17  1  0  0  0  0
 45 23  1  0  0  0  0
 46 24  1  0  0  0  0
 48 27  1  0  0  0  0
M  END
>  <Pose>
1

>  <Score>
-4.05

$$$$

 OpenBabel10142115503D

 48 47  0  0  1  0  0  0  0  0999 V2000
   33.1560   18.2870   13.8680 C   0  0  0  0  0  0  0  0  0  0  0  0
   32.4590   19.4410   14.1840 C   0  0  0  0  0  0  0  0  0  0  0  0
   32.9090   20.4350   15.0940 C   0  0  0  0  0  0  0  0  0  0  0  0
   34.1520   20.2740   15.7470 C   0  0  0  0  0  0  0  0  0  0  0  0
   34.8540   19.1220   15.4350 C   0  0  0  0  0  0  0  0  0  0  0  0
   34.3880   18.1550   14.5320 C   0  0  0  0  0  0  0  0  0  0  0  0
   35.4110   17.1000   14.4810 C   0  0  0  0  0  0  0  0  0  0  0  0
   36.3810   17.5120   15.3350 C   0  0  0  0  0  0  0  0  0  0  0  0
   36.0660   18.6710   15.8830 N   0  0  0  0  0  0  0  0  0  0  0  0
   35.4420   15.8240   13.6870 C   0  0  0  0  0  0  0  0  0  0  0  0
   36.8860   15.3530   13.4710 C   0  0  1  0  0  0  0  0  0  0  0  0
   37.8060   15.6310   14.5790 N   0  0  0  0  0  0  0  0  0  0  0  0
   37.5890   16.6890   15.5500 C   0  0  2  0  0  0  0  0  0  0  0  0
   38.1860   13.3620   12.9310 N   0  0  0  0  0  0  0  0  0  0  0  0
   39.2510   13.8400   13.8120 C   0  0  0  0  0  0  0  0  0  0  0  0
   38.9450   14.9250   14.7450 C   0  0  0  0  0  0  0  0  0  0  0  0
   38.3390   12.1060   12.2210 C   0  0  0  0  0  0  0  0  0  0  0  0
   39.7410   15.1270   15.6270 O   0  0  0  0  0  0  0  0  0  0  0  0
   37.4460   16.1820   17.0270 C   0  0  0  0  0  0  0  0  0  0  0  0
   38.3570   16.5380   18.0080 C   0  0  0  0  0  0  0  0  0  0  0  0
   38.1740   16.0530   19.3050 C   0  0  0  0  0  0  0  0  0  0  0  0
   37.1310   15.2420   19.6260 C   0  0  0  0  0  0  0  0  0  0  0  0
   36.1990   14.8550   18.6900 C   0  0  0  0  0  0  0  0  0  0  0  0
   36.3710   15.3320   17.4090 C   0  0  0  0  0  0  0  0  0  0  0  0
   38.9770   16.3060   20.3890 O   0  0  0  0  0  0  0  0  0  0  0  0
   38.1340   15.8020   21.4660 C   0  0  0  0  0  0  0  0  0  0  0  0
   37.1650   14.8980   20.9460 O   0  0  0  0  0  0  0  0  0  0  0  0
   37.0700   14.0570   12.7480 C   0  0  0  0  0  0  0  0  0  0  0  0
   36.1330   13.7120   12.0100 O   0  0  0  0  0  0  0  0  0  0  0  0
   32.8010   17.5830   13.2010 H   0  0  0  0  0  0  0  0  0  0  0  0
   31.5460   19.5900   13.7260 H   0  0  0  0  0  0  0  0  0  0  0  0
   33.2880   19.6240   13.5980 H   0  0  0  0  0  0  0  0  0  0  0  0
   32.3320   21.2710   15.2770 H   0  0  0  0  0  0  0  0  0  0  0  0
   34.5140   20.9710   16.4160 H   0  0  0  0  0  0  0  0  0  0  0  0
   34.9810   15.9910   12.7360 H   0  0  0  0  0  0  0  0  0  0  0  0
   34.9110   15.0690   14.2290 H   0  0  0  0  0  0  0  0  0  0  0  0
   37.2340   16.0300   12.7190 H   0  0  0  0  0  0  0  0  0  0  0  0
   38.4770   17.2690   15.4010 H   0  0  0  0  0  0  0  0  0  0  0  0
   40.0530   14.1750   13.1880 H   0  0  0  0  0  0  0  0  0  0  0  0
   39.4680   13.0030   14.4430 H   0  0  0  0  0  0  0  0  0  0  0  0
   37.4670   11.9210   11.6300 H   0  0  0  0  0  0  0  0  0  0  0  0
   38.4670   11.3110   12.9260 H   0  0  0  0  0  0  0  0  0  0  0  0
   39.1970   12.1580   11.5840 H   0  0  0  0  0  0  0  0  0  0  0  0
   39.1570   17.1520   17.7850 H   0  0  0  0  0  0  0  0  0  0  0  0
   35.4090   14.2380   18.9370 H   0  0  0  0  0  0  0  0  0  0  0  0
   35.6840   15.0580   16.6890 H   0  0  0  0  0  0  0  0  0  0  0  0
   38.2260   16.0620   22.4610 H   0  0  0  0  0  0  0  0  0  0  0  0
   37.7960   15.0910   20.7980 H   0  0  0  0  0  0  0  0  0  0  0  0
  2  3  1  0  0  0  0
  3 33  1  0  0  0  0
  3  4  2  0  0  0  0
  4 34  1  0  0  0  0
  5  4  1  0  0  0  0
  5  9  1  0  0  0  0
  6  5  2  0  0  0  0
  7  6  1  0  0  0  0
  7  8  2  0  0  0  0
  8 13  1  0  0  0  0
  8  9  1  0  0  0  0
 10 36  1  0  0  0  0
 10  7  1  0  0  0  0
 11 37  1  6  0  0  0
 11 10  1  0  0  0  0
 11 12  1  0  0  0  0
 12 16  1  0  0  0  0
 12 13  1  0  0  0  0
 13 38  1  6  0  0  0
 13 19  1  0  0  0  0
 14 15  1  0  0  0  0
 15 40  1  0  0  0  0
 15 16  1  0  0  0  0
 16 18  2  0  0  0  0
 17 42  1  0  0  0  0
 17 14  1  0  0  0  0
 19 24  1  0  0  0  0
 19 20  2  0  0  0  0
 20 21  1  0  0  0  0
 21 22  2  0  0  0  0
 21 25  1  0  0  0  0
 23 45  1  0  0  0  0
 24 23  2  0  0  0  0
 26 47  1  0  0  0  0
 28 14  1  0  0  0  0
 28 11  1  0  0  0  0
 29 28  2  0  0  0  0
 30  1  1  0  0  0  0
 31  2  1  0  0  0  0
 32  2  1  0  0  0  0
 35 10  1  0  0  0  0
 39 15  1  0  0  0  0
 41 17  1  0  0  0  0
 43 17  1  0  0  0  0
 44 20  1  0  0  0  0
 46 24  1  0  0  0  0
 48 27  1  0  0  0  0
M  END
>  <Pose>
1

>  <Score>
-4.05

$$$$

 OpenBabel10142115503D

 48 47  0  0  1  0  0  0  0  0999 V2000
   39.7020   15.8990   19.1800 C   0  0  0  0  0  0  0  0  0  0  0  0
   39.7010   15.9100   20.5650 C   0  0  0  0  0  0  0  0  0  0  0  0
   38.5390   15.7990   21.3750 C   0  0  0  0  0  0  0  0  0  0  0  0
   37.2710   15.6670   20.7650 C   0  0  0  0  0  0  0  0  0  0  0  0
   37.2660   15.6550   19.3800 C   0  0  0  0  0  0  0  0  0  0  0  0
   38.4280   15.7660   18.6020 C   0  0  0  0  0  0  0  0  0  0  0  0
   37.9990   15.7140   17.1970 C   0  0  0  0  0  0  0  0  0  0  0  0
   36.6500   15.5790   17.2470 C   0  0  0  0  0  0  0  0  0  0  0  0
   36.2260   15.5430   18.4970 N   0  0  0  0  0  0  0  0  0  0  0  0
   38.8140   15.7900   15.9370 C   0  0  0  0  0  0  0  0  0  0  0  0
   38.0810   15.1100   14.7730 C   0  0  1  0  0  0  0  0  0  0  0  0
   36.6200   15.2430   14.7920 N   0  0  0  0  0  0  0  0  0  0  0  0
   35.8580   15.4950   16.0030 C   0  0  2  0  0  0  0  0  0  0  0  0
   38.0110   15.0430   12.3360 N   0  0  0  0  0  0  0  0  0  0  0  0
   36.5640   14.8430   12.4000 C   0  0  0  0  0  0  0  0  0  0  0  0
   35.8830   15.1030   13.6690 C   0  0  0  0  0  0  0  0  0  0  0  0
   38.6800   15.1020   11.0500 C   0  0  0  0  0  0  0  0  0  0  0  0
   34.6810   15.1850   13.6380 O   0  0  0  0  0  0  0  0  0  0  0  0
   35.0450   16.8360   15.9780 C   0  0  0  0  0  0  0  0  0  0  0  0
   33.7110   16.8830   16.3500 C   0  0  0  0  0  0  0  0  0  0  0  0
   33.0430   18.1090   16.3060 C   0  0  0  0  0  0  0  0  0  0  0  0
   33.6650   19.2500   15.9070 C   0  0  0  0  0  0  0  0  0  0  0  0
   34.9870   19.2600   15.5250 C   0  0  0  0  0  0  0  0  0  0  0  0
   35.6540   18.0550   15.5690 C   0  0  0  0  0  0  0  0  0  0  0  0
   31.7300   18.3310   16.6380 O   0  0  0  0  0  0  0  0  0  0  0  0
   31.7120   19.7890   16.6820 C   0  0  0  0  0  0  0  0  0  0  0  0
   32.8120   20.3140   15.9460 O   0  0  0  0  0  0  0  0  0  0  0  0
   38.7460   15.1630   13.4350 C   0  0  0  0  0  0  0  0  0  0  0  0
   39.9770   15.3280   13.4500 O   0  0  0  0  0  0  0  0  0  0  0  0
   40.5650   15.9820   18.6200 H   0  0  0  0  0  0  0  0  0  0  0  0
   40.6110   16.0070   21.0440 H   0  0  0  0  0  0  0  0  0  0  0  0
   39.4990   14.9770   20.1740 H   0  0  0  0  0  0  0  0  0  0  0  0
   38.6210   15.8140   22.4040 H   0  0  0  0  0  0  0  0  0  0  0  0
   36.4030   15.5850   21.3170 H   0  0  0  0  0  0  0  0  0  0  0  0
   39.7520   15.2990   16.0950 H   0  0  0  0  0  0  0  0  0  0  0  0
   38.9700   16.8200   15.6900 H   0  0  0  0  0  0  0  0  0  0  0  0
   38.2130   14.0730   14.9980 H   0  0  0  0  0  0  0  0  0  0  0  0
   35.2240   14.6330   16.0120 H   0  0  0  0  0  0  0  0  0  0  0  0
   36.3730   13.8220   12.1420 H   0  0  0  0  0  0  0  0  0  0  0  0
   36.1660   15.5780   11.7320 H   0  0  0  0  0  0  0  0  0  0  0  0
   39.7290   15.2520   11.1990 H   0  0  0  0  0  0  0  0  0  0  0  0
   38.2810   15.9140   10.4780 H   0  0  0  0  0  0  0  0  0  0  0  0
   38.5220   14.1840   10.5230 H   0  0  0  0  0  0  0  0  0  0  0  0
   33.2200   16.0280   16.6540 H   0  0  0  0  0  0  0  0  0  0  0  0
   35.4560   20.1270   15.2210 H   0  0  0  0  0  0  0  0  0  0  0  0
   36.6480   18.0350   15.2900 H   0  0  0  0  0  0  0  0  0  0  0  0
   31.0060   20.3570   17.1760 H   0  0  0  0  0  0  0  0  0  0  0  0
   32.4120   19.7690   15.9240 H   0  0  0  0  0  0  0  0  0  0  0  0
  2 31  1  0  0  0  0
  2  3  1  0  0  0  0
  3 33  1  0  0  0  0
  4 34  1  0  0  0  0
  4  3  2  0  0  0  0
  5  4  1  0  0  0  0
  6  5  1  0  0  0  0
  7  8  2  0  0  0  0
  7  6  1  0  0  0  0
  8  9  1  0  0  0  0
  9  5  2  0  0  0  0
 10 35  1  0  0  0  0
 10  7  1  0  0  0  0
 11 12  1  0  0  0  0
 11 37  1  1  0  0  0
 11 10  1  0  0  0  0
 12 13  1  0  0  0  0
 13 38  1  1  0  0  0
 13  8  1  0  0  0  0
 14 15  1  0  0  0  0
 14 28  1  0  0  0  0
 15 16  1  0  0  0  0
 16 12  1  0  0  0  0
 17 41  1  0  0  0  0
 17 14  1  0  0  0  0
 18 16  2  0  0  0  0
 19 13  1  0  0  0  0
 19 20  2  0  0  0  0
 20 44  1  0  0  0  0
 21 20  1  0  0  0  0
 21 25  1  0  0  0  0
 22 21  2  0  0  0  0
 23 24  2  0  0  0  0
 24 19  1  0  0  0  0
 26 47  1  0  0  0  0
 28 29  2  0  0  0  0
 28 11  1  0  0  0  0
 30  1  1  0  0  0  0
 32  2  1  0  0  0  0
 36 10  1  0  0  0  0
 39 15  1  0  0  0  0
 40 15  1  0  0  0  0
 42 17  1  0  0  0  0
 43 17  1  0  0  0  0
 45 23  1  0  0  0  0
 46 24  1  0  0  0  0
 48 27  1  0  0  0  0
M  END
>  <Pose>
1

>  <Score>
-3.97

$$$$

 OpenBabel10142115503D

 48 47  0  0  1  0  0  0  0  0999 V2000
   34.5090   12.3480   12.9960 C   0  0  0  0  0  0  0  0  0  0  0  0
   34.1050   12.1200   11.6910 C   0  0  0  0  0  0  0  0  0  0  0  0
   34.1810   13.0750   10.6410 C   0  0  0  0  0  0  0  0  0  0  0  0
   34.6970   14.3640   10.9050 C   0  0  0  0  0  0  0  0  0  0  0  0
   35.1030   14.5970   12.2080 C   0  0  0  0  0  0  0  0  0  0  0  0
   35.0190   13.6370   13.2270 C   0  0  0  0  0  0  0  0  0  0  0  0
   35.5410   14.2710   14.4460 C   0  0  0  0  0  0  0  0  0  0  0  0
   35.8860   15.5270   14.0670 C   0  0  0  0  0  0  0  0  0  0  0  0
   35.6380   15.7180   12.7840 N   0  0  0  0  0  0  0  0  0  0  0  0
   35.6870   13.7160   15.8350 C   0  0  0  0  0  0  0  0  0  0  0  0
   36.7850   14.4610   16.6060 C   0  0  1  0  0  0  0  0  0  0  0  0
   36.9060   15.8900   16.2960 N   0  0  0  0  0  0  0  0  0  0  0  0
   36.4560   16.4760   15.0460 C   0  0  2  0  0  0  0  0  0  0  0  0
   37.5520   14.9190   18.8740 N   0  0  0  0  0  0  0  0  0  0  0  0
   37.9720   16.2530   18.4450 C   0  0  0  0  0  0  0  0  0  0  0  0
   37.4840   16.7530   17.1600 C   0  0  0  0  0  0  0  0  0  0  0  0
   37.7470   14.5060   20.2520 C   0  0  0  0  0  0  0  0  0  0  0  0
   37.6230   17.9300   16.9430 O   0  0  0  0  0  0  0  0  0  0  0  0
   35.3380   17.5630   15.2160 C   0  0  0  0  0  0  0  0  0  0  0  0
   34.3300   17.4260   16.1560 C   0  0  0  0  0  0  0  0  0  0  0  0
   33.3640   18.4300   16.2590 C   0  0  0  0  0  0  0  0  0  0  0  0
   33.3870   19.5300   15.4620 C   0  0  0  0  0  0  0  0  0  0  0  0
   34.3640   19.7160   14.5100 C   0  0  0  0  0  0  0  0  0  0  0  0
   35.3220   18.7320   14.4050 C   0  0  0  0  0  0  0  0  0  0  0  0
   32.3040   18.4510   17.1300 O   0  0  0  0  0  0  0  0  0  0  0  0
   31.8620   19.8320   16.9740 C   0  0  0  0  0  0  0  0  0  0  0  0
   32.3450   20.3640   15.7450 O   0  0  0  0  0  0  0  0  0  0  0  0
   37.0000   14.0580   18.0300 C   0  0  0  0  0  0  0  0  0  0  0  0
   36.6290   12.9110   18.3280 O   0  0  0  0  0  0  0  0  0  0  0  0
   34.4420   11.6310   13.7360 H   0  0  0  0  0  0  0  0  0  0  0  0
   33.7220   11.1890   11.4640 H   0  0  0  0  0  0  0  0  0  0  0  0
   35.1320   12.1680   11.7880 H   0  0  0  0  0  0  0  0  0  0  0  0
   33.8610   12.8280    9.6920 H   0  0  0  0  0  0  0  0  0  0  0  0
   34.7670   15.0870   10.1720 H   0  0  0  0  0  0  0  0  0  0  0  0
   35.9430   12.6790   15.7740 H   0  0  0  0  0  0  0  0  0  0  0  0
   34.7590   13.8400   16.3540 H   0  0  0  0  0  0  0  0  0  0  0  0
   37.6760   14.0630   16.1690 H   0  0  0  0  0  0  0  0  0  0  0  0
   37.3760   16.8880   14.6870 H   0  0  0  0  0  0  0  0  0  0  0  0
   39.0410   16.2490   18.3970 H   0  0  0  0  0  0  0  0  0  0  0  0
   37.5380   16.9120   19.1670 H   0  0  0  0  0  0  0  0  0  0  0  0
   37.3820   13.5080   20.3800 H   0  0  0  0  0  0  0  0  0  0  0  0
   37.2120   15.1670   20.9020 H   0  0  0  0  0  0  0  0  0  0  0  0
   38.7900   14.5370   20.4900 H   0  0  0  0  0  0  0  0  0  0  0  0
   34.2930   16.5970   16.7700 H   0  0  0  0  0  0  0  0  0  0  0  0
   34.3780   20.5530   13.9060 H   0  0  0  0  0  0  0  0  0  0  0  0
   36.0680   18.8490   13.7010 H   0  0  0  0  0  0  0  0  0  0  0  0
   31.2840   20.3490   17.6560 H   0  0  0  0  0  0  0  0  0  0  0  0
   32.1590   19.7610   15.9890 H   0  0  0  0  0  0  0  0  0  0  0  0
  1 30  1  0  0  0  0
  2 32  1  0  0  0  0
  3  4  2  0  0  0  0
  3  2  1  0  0  0  0
  4  5  1  0  0  0  0
  5  9  2  0  0  0  0
  5  6  1  0  0  0  0
  6  7  1  0  0  0  0
  7 10  1  0  0  0  0
  8  7  2  0  0  0  0
  8 13  1  0  0  0  0
  9  8  1  0  0  0  0
 10 36  1  0  0  0  0
 10 11  1  0  0  0  0
 11 37  1  6  0  0  0
 11 28  1  0  0  0  0
 12 11  1  0  0  0  0
 12 16  1  0  0  0  0
 13 38  1  6  0  0  0
 13 19  1  0  0  0  0
 13 12  1  0  0  0  0
 14 17  1  0  0  0  0
 15 14  1  0  0  0  0
 15 40  1  0  0  0  0
 16 15  1  0  0  0  0
 17 41  1  0  0  0  0
 17 43  1  0  0  0  0
 17 42  1  0  0  0  0
 18 16  2  0  0  0  0
 19 20  2  0  0  0  0
 20 21  1  0  0  0  0
 20 44  1  0  0  0  0
 21 25  1  0  0  0  0
 22 21  2  0  0  0  0
 24 23  2  0  0  0  0
 24 19  1  0  0  0  0
 26 47  1  0  0  0  0
 27 48  1  0  0  0  0
 28 29  2  0  0  0  0
 28 14  1  0  0  0  0
 31  2  1  0  0  0  0
 33  3  1  0  0  0  0
 34  4  1  0  0  0  0
 35 10  1  0  0  0  0
 39 15  1  0  0  0  0
 45 23  1  0  0  0  0
 46 24  1  0  0  0  0
M  END
>  <Pose>
1

>  <Score>
-3.75

$$$$
