
 OpenBabel10142115503D

 48 47  0  0  1  0  0  0  0  0999 V2000
   30.5620   36.4620    0.8530 C   0  0  0  0  0  0  0  0  0  0  0  0
   30.4410   36.1400    2.1950 C   0  0  0  0  0  0  0  0  0  0  0  0
   31.4780   35.5830    2.9910 C   0  0  0  0  0  0  0  0  0  0  0  0
   32.7400   35.3200    2.4110 C   0  0  0  0  0  0  0  0  0  0  0  0
   32.8670   35.6400    1.0700 C   0  0  0  0  0  0  0  0  0  0  0  0
   31.8270   36.1900    0.3050 C   0  0  0  0  0  0  0  0  0  0  0  0
   32.3580   36.3770   -1.0530 C   0  0  0  0  0  0  0  0  0  0  0  0
   33.6390   35.9350   -0.9920 C   0  0  0  0  0  0  0  0  0  0  0  0
   33.9350   35.5120    0.2230 N   0  0  0  0  0  0  0  0  0  0  0  0
   31.6900   36.9250   -2.2820 C   0  0  0  0  0  0  0  0  0  0  0  0
   32.7290   37.4890   -3.2600 C   0  0  1  0  0  0  0  0  0  0  0  0
   34.0090   36.7720   -3.2950 N   0  0  0  0  0  0  0  0  0  0  0  0
   34.5010   35.9660   -2.1910 C   0  0  2  0  0  0  0  0  0  0  0  0
   33.0260   38.0680   -5.6100 N   0  0  0  0  0  0  0  0  0  0  0  0
   34.4220   37.6400   -5.5220 C   0  0  0  0  0  0  0  0  0  0  0  0
   34.8320   36.8470   -4.3630 C   0  0  0  0  0  0  0  0  0  0  0  0
   32.5000   38.5780   -6.8630 C   0  0  0  0  0  0  0  0  0  0  0  0
   35.8990   36.2920   -4.4310 O   0  0  0  0  0  0  0  0  0  0  0  0
   34.7100   34.4530   -2.5490 C   0  0  0  0  0  0  0  0  0  0  0  0
   35.8450   33.7640   -2.1530 C   0  0  0  0  0  0  0  0  0  0  0  0
   35.9710   32.4180   -2.5040 C   0  0  0  0  0  0  0  0  0  0  0  0
   35.0140   31.7720   -3.2220 C   0  0  0  0  0  0  0  0  0  0  0  0
   33.8690   32.4090   -3.6420 C   0  0  0  0  0  0  0  0  0  0  0  0
   33.7360   33.7360   -3.2980 C   0  0  0  0  0  0  0  0  0  0  0  0
   37.0230   31.5930   -2.1950 O   0  0  0  0  0  0  0  0  0  0  0  0
   36.4550   30.2970   -2.5480 C   0  0  0  0  0  0  0  0  0  0  0  0
   35.3600   30.4700   -3.4410 O   0  0  0  0  0  0  0  0  0  0  0  0
   32.2140   38.0150   -4.5620 C   0  0  0  0  0  0  0  0  0  0  0  0
   31.0230   38.3680   -4.5680 O   0  0  0  0  0  0  0  0  0  0  0  0
   29.7880   36.8670    0.3030 H   0  0  0  0  0  0  0  0  0  0  0  0
   29.5320   36.3180    2.6500 H   0  0  0  0  0  0  0  0  0  0  0  0
   31.0310   36.9720    2.0360 H   0  0  0  0  0  0  0  0  0  0  0  0
   31.3110   35.3720    3.9870 H   0  0  0  0  0  0  0  0  0  0  0  0
   33.5180   34.9140    2.9530 H   0  0  0  0  0  0  0  0  0  0  0  0
   31.0160   37.7060   -1.9970 H   0  0  0  0  0  0  0  0  0  0  0  0
   31.1570   36.1340   -2.7660 H   0  0  0  0  0  0  0  0  0  0  0  0
   33.0040   38.4110   -2.7900 H   0  0  0  0  0  0  0  0  0  0  0  0
   35.4230   36.4690   -1.9860 H   0  0  0  0  0  0  0  0  0  0  0  0
   35.0250   38.5240   -5.5310 H   0  0  0  0  0  0  0  0  0  0  0  0
   34.5480   36.9790   -6.3530 H   0  0  0  0  0  0  0  0  0  0  0  0
   31.4700   38.8400   -6.7380 H   0  0  0  0  0  0  0  0  0  0  0  0
   32.5880   37.8260   -7.6190 H   0  0  0  0  0  0  0  0  0  0  0  0
   33.0550   39.4450   -7.1560 H   0  0  0  0  0  0  0  0  0  0  0  0
   36.5840   34.2370   -1.6100 H   0  0  0  0  0  0  0  0  0  0  0  0
   33.1450   31.9160   -4.1890 H   0  0  0  0  0  0  0  0  0  0  0  0
   32.8850   34.2360   -3.5990 H   0  0  0  0  0  0  0  0  0  0  0  0
   36.7970   29.3870   -2.2010 H   0  0  0  0  0  0  0  0  0  0  0  0
   35.9410   30.7850   -3.2980 H   0  0  0  0  0  0  0  0  0  0  0  0
  2 31  1  0  0  0  0
  2  3  1  0  0  0  0
  3 33  1  0  0  0  0
  4 34  1  0  0  0  0
  4  3  2  0  0  0  0
  5  4  1  0  0  0  0
  6  5  1  0  0  0  0
  7  8  2  0  0  0  0
  7  6  1  0  0  0  0
  8  9  1  0  0  0  0
  9  5  2  0  0  0  0
 10 35  1  0  0  0  0
 10  7  1  0  0  0  0
 11 37  1  1  0  0  0
 11 10  1  0  0  0  0
 12 11  1  0  0  0  0
 12 13  1  0  0  0  0
 13 38  1  1  0  0  0
 13  8  1  0  0  0  0
 14 15  1  0  0  0  0
 14 28  1  0  0  0  0
 15 16  1  0  0  0  0
 16 12  1  0  0  0  0
 17 41  1  0  0  0  0
 17 14  1  0  0  0  0
 18 16  2  0  0  0  0
 19 13  1  0  0  0  0
 19 20  2  0  0  0  0
 20 44  1  0  0  0  0
 21 25  1  0  0  0  0
 21 20  1  0  0  0  0
 22 21  2  0  0  0  0
 23 24  2  0  0  0  0
 24 19  1  0  0  0  0
 26 47  1  0  0  0  0
 27 48  1  0  0  0  0
 28 11  1  0  0  0  0
 29 28  2  0  0  0  0
 30  1  1  0  0  0  0
 32  2  1  0  0  0  0
 36 10  1  0  0  0  0
 39 15  1  0  0  0  0
 40 15  1  0  0  0  0
 42 17  1  0  0  0  0
 43 17  1  0  0  0  0
 45 23  1  0  0  0  0
 46 24  1  0  0  0  0
M  END
>  <Pose>
1

>  <Score>
-3.79

$$$$

 OpenBabel10142115503D

 48 47  0  0  1  0  0  0  0  0999 V2000
   31.3120   29.0040   -4.9360 C   0  0  0  0  0  0  0  0  0  0  0  0
   31.1150   27.6350   -5.0230 C   0  0  0  0  0  0  0  0  0  0  0  0
   32.0200   26.6540   -4.5340 C   0  0  0  0  0  0  0  0  0  0  0  0
   33.2210   27.0600   -3.9080 C   0  0  0  0  0  0  0  0  0  0  0  0
   33.4230   28.4270   -3.8180 C   0  0  0  0  0  0  0  0  0  0  0  0
   32.5140   29.3760   -4.3080 C   0  0  0  0  0  0  0  0  0  0  0  0
   33.0910   30.6980   -4.0240 C   0  0  0  0  0  0  0  0  0  0  0  0
   34.2690   30.4380   -3.4020 C   0  0  0  0  0  0  0  0  0  0  0  0
   34.4620   29.1380   -3.2810 N   0  0  0  0  0  0  0  0  0  0  0  0
   32.5570   32.0690   -4.3260 C   0  0  0  0  0  0  0  0  0  0  0  0
   33.1440   33.1070   -3.3600 C   0  0  1  0  0  0  0  0  0  0  0  0
   34.5280   32.8600   -2.9420 N   0  0  0  0  0  0  0  0  0  0  0  0
   35.1440   31.5440   -2.9610 C   0  0  2  0  0  0  0  0  0  0  0  0
   33.5370   35.5030   -3.1360 N   0  0  0  0  0  0  0  0  0  0  0  0
   34.7780   35.2150   -2.4180 C   0  0  0  0  0  0  0  0  0  0  0  0
   35.3140   33.8550   -2.4780 C   0  0  0  0  0  0  0  0  0  0  0  0
   33.1340   36.8780   -3.3670 C   0  0  0  0  0  0  0  0  0  0  0  0
   36.4500   33.6980   -2.1070 O   0  0  0  0  0  0  0  0  0  0  0  0
   36.3940   31.4380   -3.9020 C   0  0  0  0  0  0  0  0  0  0  0  0
   37.5880   30.8890   -3.4630 C   0  0  0  0  0  0  0  0  0  0  0  0
   38.6650   30.8230   -4.3500 C   0  0  0  0  0  0  0  0  0  0  0  0
   38.5720   31.2840   -5.6260 C   0  0  0  0  0  0  0  0  0  0  0  0
   37.4110   31.8400   -6.1130 C   0  0  0  0  0  0  0  0  0  0  0  0
   36.3430   31.9060   -5.2450 C   0  0  0  0  0  0  0  0  0  0  0  0
   39.9100   30.3140   -4.0800 O   0  0  0  0  0  0  0  0  0  0  0  0
   40.4650   30.2440   -5.4270 C   0  0  0  0  0  0  0  0  0  0  0  0
   39.7470   31.1130   -6.2970 O   0  0  0  0  0  0  0  0  0  0  0  0
   32.7490   34.5320   -3.5810 C   0  0  0  0  0  0  0  0  0  0  0  0
   31.6810   34.7090   -4.1900 O   0  0  0  0  0  0  0  0  0  0  0  0
   30.6350   29.6910   -5.3010 H   0  0  0  0  0  0  0  0  0  0  0  0
   30.2490   27.3040   -5.4760 H   0  0  0  0  0  0  0  0  0  0  0  0
   31.0080   27.9930   -4.0610 H   0  0  0  0  0  0  0  0  0  0  0  0
   31.8010   25.6510   -4.6350 H   0  0  0  0  0  0  0  0  0  0  0  0
   33.9040   26.3800   -3.5410 H   0  0  0  0  0  0  0  0  0  0  0  0
   31.4910   32.0610   -4.2270 H   0  0  0  0  0  0  0  0  0  0  0  0
   32.8350   32.3340   -5.3250 H   0  0  0  0  0  0  0  0  0  0  0  0
   32.6010   32.9080   -2.4590 H   0  0  0  0  0  0  0  0  0  0  0  0
   35.4000   31.4400   -1.9270 H   0  0  0  0  0  0  0  0  0  0  0  0
   34.6080   35.4430   -1.3870 H   0  0  0  0  0  0  0  0  0  0  0  0
   35.5150   35.8110   -2.9150 H   0  0  0  0  0  0  0  0  0  0  0  0
   32.2080   36.8930   -3.9030 H   0  0  0  0  0  0  0  0  0  0  0  0
   33.8860   37.3780   -3.9410 H   0  0  0  0  0  0  0  0  0  0  0  0
   33.0110   37.3760   -2.4280 H   0  0  0  0  0  0  0  0  0  0  0  0
   37.6810   30.5360   -2.4980 H   0  0  0  0  0  0  0  0  0  0  0  0
   37.3430   32.1900   -7.0810 H   0  0  0  0  0  0  0  0  0  0  0  0
   35.4600   32.3160   -5.5860 H   0  0  0  0  0  0  0  0  0  0  0  0
   41.2610   29.6510   -5.7090 H   0  0  0  0  0  0  0  0  0  0  0  0
   39.9130   31.0900   -5.6420 H   0  0  0  0  0  0  0  0  0  0  0  0
  2  3  1  0  0  0  0
  2 32  1  0  0  0  0
  3  4  2  0  0  0  0
  4  5  1  0  0  0  0
  4 34  1  0  0  0  0
  5  9  1  0  0  0  0
  6  7  1  0  0  0  0
  6  5  2  0  0  0  0
  7  8  2  0  0  0  0
  8  9  1  0  0  0  0
  8 13  1  0  0  0  0
 10 35  1  0  0  0  0
 10  7  1  0  0  0  0
 10 11  1  0  0  0  0
 11 12  1  0  0  0  0
 11 37  1  1  0  0  0
 12 16  1  0  0  0  0
 13 12  1  0  0  0  0
 13 38  1  1  0  0  0
 14 15  1  0  0  0  0
 15 39  1  0  0  0  0
 16 15  1  0  0  0  0
 16 18  2  0  0  0  0
 17 14  1  0  0  0  0
 17 43  1  0  0  0  0
 19 20  2  0  0  0  0
 19 13  1  0  0  0  0
 20 44  1  0  0  0  0
 21 25  1  0  0  0  0
 21 20  1  0  0  0  0
 22 21  2  0  0  0  0
 23 24  2  0  0  0  0
 24 19  1  0  0  0  0
 27 48  1  0  0  0  0
 28 11  1  0  0  0  0
 28 14  1  0  0  0  0
 29 28  2  0  0  0  0
 30  1  1  0  0  0  0
 31  2  1  0  0  0  0
 33  3  1  0  0  0  0
 36 10  1  0  0  0  0
 40 15  1  0  0  0  0
 41 17  1  0  0  0  0
 42 17  1  0  0  0  0
 45 23  1  0  0  0  0
 46 24  1  0  0  0  0
 47 26  1  0  0  0  0
M  END
>  <Pose>
1

>  <Score>
-3.64

$$$$

 OpenBabel10142115503D

 48 47  0  0  1  0  0  0  0  0999 V2000
   39.0620   30.4970   -4.1560 C   0  0  0  0  0  0  0  0  0  0  0  0
   39.8910   29.6270   -4.8450 C   0  0  0  0  0  0  0  0  0  0  0  0
   39.4810   28.8090   -5.9330 C   0  0  0  0  0  0  0  0  0  0  0  0
   38.1390   28.8530   -6.3740 C   0  0  0  0  0  0  0  0  0  0  0  0
   37.3060   29.7210   -5.6880 C   0  0  0  0  0  0  0  0  0  0  0  0
   37.7350   30.5190   -4.6180 C   0  0  0  0  0  0  0  0  0  0  0  0
   36.5630   31.2850   -4.1680 C   0  0  0  0  0  0  0  0  0  0  0  0
   35.5540   30.8930   -4.9860 C   0  0  0  0  0  0  0  0  0  0  0  0
   35.9760   29.9970   -5.8600 N   0  0  0  0  0  0  0  0  0  0  0  0
   36.4360   32.2910   -3.0590 C   0  0  0  0  0  0  0  0  0  0  0  0
   35.2650   33.2460   -3.3230 C   0  0  1  0  0  0  0  0  0  0  0  0
   34.1090   32.6470   -3.9990 N   0  0  0  0  0  0  0  0  0  0  0  0
   34.1980   31.4580   -4.8290 C   0  0  2  0  0  0  0  0  0  0  0  0
   33.7590   34.7860   -2.1790 N   0  0  0  0  0  0  0  0  0  0  0  0
   32.6910   34.3980   -3.1000 C   0  0  0  0  0  0  0  0  0  0  0  0
   32.8780   33.1950   -3.9120 C   0  0  0  0  0  0  0  0  0  0  0  0
   33.5030   35.7700   -1.1440 C   0  0  0  0  0  0  0  0  0  0  0  0
   31.9030   32.7500   -4.4620 O   0  0  0  0  0  0  0  0  0  0  0  0
   33.3410   30.2520   -4.3110 C   0  0  0  0  0  0  0  0  0  0  0  0
   33.3670   29.8610   -2.9820 C   0  0  0  0  0  0  0  0  0  0  0  0
   32.5800   28.7780   -2.5830 C   0  0  0  0  0  0  0  0  0  0  0  0
   31.7950   28.1010   -3.4620 C   0  0  0  0  0  0  0  0  0  0  0  0
   31.7330   28.4450   -4.7930 C   0  0  0  0  0  0  0  0  0  0  0  0
   32.5040   29.5140   -5.1940 C   0  0  0  0  0  0  0  0  0  0  0  0
   32.4890   28.2630   -1.3150 O   0  0  0  0  0  0  0  0  0  0  0  0
   31.3320   27.3890   -1.4670 C   0  0  0  0  0  0  0  0  0  0  0  0
   31.1250   27.0870   -2.8420 O   0  0  0  0  0  0  0  0  0  0  0  0
   34.9770   34.2660   -2.2680 C   0  0  0  0  0  0  0  0  0  0  0  0
   35.9280   34.5570   -1.5240 O   0  0  0  0  0  0  0  0  0  0  0  0
   39.3920   31.0790   -3.3690 H   0  0  0  0  0  0  0  0  0  0  0  0
   40.8780   29.5690   -4.5480 H   0  0  0  0  0  0  0  0  0  0  0  0
   39.6400   30.4610   -5.3980 H   0  0  0  0  0  0  0  0  0  0  0  0
   40.1600   28.1870   -6.3980 H   0  0  0  0  0  0  0  0  0  0  0  0
   37.8010   28.2740   -7.1580 H   0  0  0  0  0  0  0  0  0  0  0  0
   37.3420   32.8560   -2.9910 H   0  0  0  0  0  0  0  0  0  0  0  0
   36.2540   31.7700   -2.1420 H   0  0  0  0  0  0  0  0  0  0  0  0
   35.6620   33.8840   -4.0850 H   0  0  0  0  0  0  0  0  0  0  0  0
   33.8370   31.8480   -5.7580 H   0  0  0  0  0  0  0  0  0  0  0  0
   32.5420   35.2150   -3.7740 H   0  0  0  0  0  0  0  0  0  0  0  0
   31.8650   34.1600   -2.4620 H   0  0  0  0  0  0  0  0  0  0  0  0
   34.3940   35.9260   -0.5720 H   0  0  0  0  0  0  0  0  0  0  0  0
   32.7240   35.4180   -0.5020 H   0  0  0  0  0  0  0  0  0  0  0  0
   33.2040   36.6930   -1.5960 H   0  0  0  0  0  0  0  0  0  0  0  0
   33.9580   30.3600   -2.2990 H   0  0  0  0  0  0  0  0  0  0  0  0
   31.1370   27.9280   -5.4590 H   0  0  0  0  0  0  0  0  0  0  0  0
   32.4740   29.7950   -6.1870 H   0  0  0  0  0  0  0  0  0  0  0  0
   30.7480   27.0410   -0.6900 H   0  0  0  0  0  0  0  0  0  0  0  0
   31.6460   27.2270   -2.4360 H   0  0  0  0  0  0  0  0  0  0  0  0
  1 30  1  0  0  0  0
  2 31  1  0  0  0  0
  3  2  1  0  0  0  0
  4  3  2  0  0  0  0
  4  5  1  0  0  0  0
  5  6  1  0  0  0  0
  6  7  1  0  0  0  0
  7 10  1  0  0  0  0
  8 13  1  0  0  0  0
  8  7  2  0  0  0  0
  9  5  2  0  0  0  0
  9  8  1  0  0  0  0
 10 35  1  0  0  0  0
 10 36  1  0  0  0  0
 11 37  1  6  0  0  0
 11 10  1  0  0  0  0
 11 28  1  0  0  0  0
 12 16  1  0  0  0  0
 12 11  1  0  0  0  0
 13 38  1  6  0  0  0
 13 19  1  0  0  0  0
 13 12  1  0  0  0  0
 14 17  1  0  0  0  0
 15 40  1  0  0  0  0
 15 14  1  0  0  0  0
 16 15  1  0  0  0  0
 17 41  1  0  0  0  0
 17 42  1  0  0  0  0
 18 16  2  0  0  0  0
 19 20  2  0  0  0  0
 20 21  1  0  0  0  0
 20 44  1  0  0  0  0
 21 25  1  0  0  0  0
 22 21  2  0  0  0  0
 24 23  2  0  0  0  0
 24 19  1  0  0  0  0
 26 47  1  0  0  0  0
 27 48  1  0  0  0  0
 28 14  1  0  0  0  0
 28 29  2  0  0  0  0
 32  2  1  0  0  0  0
 33  3  1  0  0  0  0
 34  4  1  0  0  0  0
 39 15  1  0  0  0  0
 43 17  1  0  0  0  0
 45 23  1  0  0  0  0
 46 24  1  0  0  0  0
M  END
>  <Pose>
2

>  <Score>
-3.40

$$$$

 OpenBabel10142115503D

 48 47  0  0  1  0  0  0  0  0999 V2000
   32.8670   28.3340   -3.0360 C   0  0  0  0  0  0  0  0  0  0  0  0
   31.5290   28.0940   -2.7700 C   0  0  0  0  0  0  0  0  0  0  0  0
   30.4770   29.0170   -3.0130 C   0  0  0  0  0  0  0  0  0  0  0  0
   30.7720   30.2860   -3.5620 C   0  0  0  0  0  0  0  0  0  0  0  0
   32.1080   30.5310   -3.8310 C   0  0  0  0  0  0  0  0  0  0  0  0
   33.1290   29.6020   -3.5830 C   0  0  0  0  0  0  0  0  0  0  0  0
   34.3880   30.2400   -3.9960 C   0  0  0  0  0  0  0  0  0  0  0  0
   34.0260   31.4680   -4.4470 C   0  0  0  0  0  0  0  0  0  0  0  0
   32.7200   31.6380   -4.3550 N   0  0  0  0  0  0  0  0  0  0  0  0
   35.7940   29.7130   -3.9560 C   0  0  0  0  0  0  0  0  0  0  0  0
   36.6700   30.4220   -4.9980 C   0  0  1  0  0  0  0  0  0  0  0  0
   36.3490   31.8350   -5.2270 N   0  0  0  0  0  0  0  0  0  0  0  0
   35.0440   32.4120   -4.9510 C   0  0  2  0  0  0  0  0  0  0  0  0
   39.0020   30.8980   -5.5290 N   0  0  0  0  0  0  0  0  0  0  0  0
   38.5970   32.1980   -6.0630 C   0  0  0  0  0  0  0  0  0  0  0  0
   37.2550   32.6900   -5.7480 C   0  0  0  0  0  0  0  0  0  0  0  0
   40.4000   30.5100   -5.5460 C   0  0  0  0  0  0  0  0  0  0  0  0
   37.0330   33.8530   -5.9710 O   0  0  0  0  0  0  0  0  0  0  0  0
   35.0660   33.5560   -3.8790 C   0  0  0  0  0  0  0  0  0  0  0  0
   34.6750   34.8480   -4.1900 C   0  0  0  0  0  0  0  0  0  0  0  0
   34.7170   35.8230   -3.1900 C   0  0  0  0  0  0  0  0  0  0  0  0
   35.1330   35.5370   -1.9280 C   0  0  0  0  0  0  0  0  0  0  0  0
   35.5340   34.2710   -1.5660 C   0  0  0  0  0  0  0  0  0  0  0  0
   35.4930   33.3030   -2.5460 C   0  0  0  0  0  0  0  0  0  0  0  0
   34.3680   37.1430   -3.3260 O   0  0  0  0  0  0  0  0  0  0  0  0
   34.3320   37.5530   -1.9270 C   0  0  0  0  0  0  0  0  0  0  0  0
   35.0890   36.6450   -1.1330 O   0  0  0  0  0  0  0  0  0  0  0  0
   38.1170   30.0440   -5.0310 C   0  0  0  0  0  0  0  0  0  0  0  0
   38.3930   28.9240   -4.5700 O   0  0  0  0  0  0  0  0  0  0  0  0
   33.6080   27.6410   -2.8490 H   0  0  0  0  0  0  0  0  0  0  0  0
   31.2780   27.1780   -2.3670 H   0  0  0  0  0  0  0  0  0  0  0  0
   31.7410   28.0940   -3.7800 H   0  0  0  0  0  0  0  0  0  0  0  0
   29.5020   28.7640   -2.7890 H   0  0  0  0  0  0  0  0  0  0  0  0
   30.0380   30.9860   -3.7510 H   0  0  0  0  0  0  0  0  0  0  0  0
   35.7820   28.6630   -4.1640 H   0  0  0  0  0  0  0  0  0  0  0  0
   36.2020   29.8950   -2.9840 H   0  0  0  0  0  0  0  0  0  0  0  0
   36.3450   29.9690   -5.9110 H   0  0  0  0  0  0  0  0  0  0  0  0
   34.7850   32.7690   -5.9260 H   0  0  0  0  0  0  0  0  0  0  0  0
   38.6720   32.1400   -7.1280 H   0  0  0  0  0  0  0  0  0  0  0  0
   39.2530   32.8960   -5.5850 H   0  0  0  0  0  0  0  0  0  0  0  0
   40.5050   29.5350   -5.1180 H   0  0  0  0  0  0  0  0  0  0  0  0
   40.9720   31.2120   -4.9760 H   0  0  0  0  0  0  0  0  0  0  0  0
   40.7540   30.4960   -6.5550 H   0  0  0  0  0  0  0  0  0  0  0  0
   34.3580   35.0870   -5.1430 H   0  0  0  0  0  0  0  0  0  0  0  0
   35.8500   34.0570   -0.6070 H   0  0  0  0  0  0  0  0  0  0  0  0
   35.7860   32.3450   -2.2990 H   0  0  0  0  0  0  0  0  0  0  0  0
   33.8320   38.3800   -1.5660 H   0  0  0  0  0  0  0  0  0  0  0  0
   35.1010   36.8820   -1.7660 H   0  0  0  0  0  0  0  0  0  0  0  0
  1 30  1  0  0  0  0
  2 31  1  0  0  0  0
  3 33  1  0  0  0  0
  3  2  1  0  0  0  0
  4  3  2  0  0  0  0
  5  6  1  0  0  0  0
  5  4  1  0  0  0  0
  7 10  1  0  0  0  0
  7  6  1  0  0  0  0
  8  9  1  0  0  0  0
  8  7  2  0  0  0  0
  9  5  2  0  0  0  0
 10 36  1  0  0  0  0
 11 37  1  6  0  0  0
 11 10  1  0  0  0  0
 12 11  1  0  0  0  0
 12 13  1  0  0  0  0
 13 38  1  6  0  0  0
 13  8  1  0  0  0  0
 13 19  1  0  0  0  0
 14 28  1  0  0  0  0
 15 16  1  0  0  0  0
 15 40  1  0  0  0  0
 15 14  1  0  0  0  0
 16 12  1  0  0  0  0
 17 14  1  0  0  0  0
 17 41  1  0  0  0  0
 17 42  1  0  0  0  0
 18 16  2  0  0  0  0
 19 24  1  0  0  0  0
 20 19  2  0  0  0  0
 20 21  1  0  0  0  0
 21 22  2  0  0  0  0
 23 45  1  0  0  0  0
 24 46  1  0  0  0  0
 24 23  2  0  0  0  0
 25 21  1  0  0  0  0
 26 47  1  0  0  0  0
 28 11  1  0  0  0  0
 28 29  2  0  0  0  0
 32  2  1  0  0  0  0
 34  4  1  0  0  0  0
 35 10  1  0  0  0  0
 39 15  1  0  0  0  0
 43 17  1  0  0  0  0
 44 20  1  0  0  0  0
 48 27  1  0  0  0  0
M  END
>  <Pose>
1

>  <Score>
-3.13

$$$$
