
 OpenBabel10142115503D

 48 47  0  0  1  0  0  0  0  0999 V2000
   30.5450   49.8740    5.4940 C   0  0  0  0  0  0  0  0  0  0  0  0
   30.1080   50.5790    6.6030 C   0  0  0  0  0  0  0  0  0  0  0  0
   29.3560   50.0220    7.6720 C   0  0  0  0  0  0  0  0  0  0  0  0
   29.0040   48.6530    7.6410 C   0  0  0  0  0  0  0  0  0  0  0  0
   29.4380   47.9430    6.5350 C   0  0  0  0  0  0  0  0  0  0  0  0
   30.1810   48.5160    5.4920 C   0  0  0  0  0  0  0  0  0  0  0  0
   30.4370   47.4430    4.5200 C   0  0  0  0  0  0  0  0  0  0  0  0
   29.8430   46.3440    5.0470 C   0  0  0  0  0  0  0  0  0  0  0  0
   29.2700   46.6260    6.2030 N   0  0  0  0  0  0  0  0  0  0  0  0
   31.1800   47.4820    3.2140 C   0  0  0  0  0  0  0  0  0  0  0  0
   31.7110   46.0900    2.8490 C   0  0  1  0  0  0  0  0  0  0  0  0
   30.8540   44.9690    3.2510 N   0  0  0  0  0  0  0  0  0  0  0  0
   29.8900   45.0500    4.3350 C   0  0  2  0  0  0  0  0  0  0  0  0
   32.4810   44.7770    0.9430 N   0  0  0  0  0  0  0  0  0  0  0  0
   31.8840   43.5850    1.5450 C   0  0  0  0  0  0  0  0  0  0  0  0
   30.9370   43.7640    2.6460 C   0  0  0  0  0  0  0  0  0  0  0  0
   33.1710   44.6800   -0.3300 C   0  0  0  0  0  0  0  0  0  0  0  0
   30.2690   42.8100    2.9530 O   0  0  0  0  0  0  0  0  0  0  0  0
   28.4060   44.8070    3.8890 C   0  0  0  0  0  0  0  0  0  0  0  0
   27.7280   45.7180    3.0960 C   0  0  0  0  0  0  0  0  0  0  0  0
   26.4080   45.4430    2.7330 C   0  0  0  0  0  0  0  0  0  0  0  0
   25.7750   44.3100    3.1380 C   0  0  0  0  0  0  0  0  0  0  0  0
   26.4000   43.3730    3.9280 C   0  0  0  0  0  0  0  0  0  0  0  0
   27.7040   43.6360    4.2880 C   0  0  0  0  0  0  0  0  0  0  0  0
   25.5970   46.2330    1.9570 O   0  0  0  0  0  0  0  0  0  0  0  0
   24.5030   45.3060    1.6910 C   0  0  0  0  0  0  0  0  0  0  0  0
   24.4970   44.2640    2.6610 O   0  0  0  0  0  0  0  0  0  0  0  0
   32.4200   45.9620    1.5380 C   0  0  0  0  0  0  0  0  0  0  0  0
   32.9100   47.0090    1.0850 O   0  0  0  0  0  0  0  0  0  0  0  0
   31.0910   50.3080    4.7330 H   0  0  0  0  0  0  0  0  0  0  0  0
   30.3460   51.5820    6.6570 H   0  0  0  0  0  0  0  0  0  0  0  0
   30.8760   49.9250    6.8230 H   0  0  0  0  0  0  0  0  0  0  0  0
   29.0680   50.6130    8.4680 H   0  0  0  0  0  0  0  0  0  0  0  0
   28.4580   48.2110    8.3970 H   0  0  0  0  0  0  0  0  0  0  0  0
   32.0030   48.1610    3.2980 H   0  0  0  0  0  0  0  0  0  0  0  0
   30.5080   47.8060    2.4460 H   0  0  0  0  0  0  0  0  0  0  0  0
   32.5420   45.9840    3.5140 H   0  0  0  0  0  0  0  0  0  0  0  0
   30.2580   44.2750    4.9740 H   0  0  0  0  0  0  0  0  0  0  0  0
   32.6870   42.9800    1.9130 H   0  0  0  0  0  0  0  0  0  0  0  0
   31.2980   43.1580    0.7590 H   0  0  0  0  0  0  0  0  0  0  0  0
   33.5380   45.6450   -0.6110 H   0  0  0  0  0  0  0  0  0  0  0  0
   32.4920   44.3250   -1.0770 H   0  0  0  0  0  0  0  0  0  0  0  0
   33.9900   43.9980   -0.2400 H   0  0  0  0  0  0  0  0  0  0  0  0
   28.1900   46.5850    2.7790 H   0  0  0  0  0  0  0  0  0  0  0  0
   25.9160   42.5150    4.2360 H   0  0  0  0  0  0  0  0  0  0  0  0
   28.1960   42.9480    4.8790 H   0  0  0  0  0  0  0  0  0  0  0  0
   23.8300   45.3930    0.9130 H   0  0  0  0  0  0  0  0  0  0  0  0
   24.6730   44.9170    2.6310 H   0  0  0  0  0  0  0  0  0  0  0  0
  2 31  1  0  0  0  0
  2 32  1  0  0  0  0
  2  3  1  0  0  0  0
  3 33  1  0  0  0  0
  4  3  2  0  0  0  0
  4 34  1  0  0  0  0
  5  4  1  0  0  0  0
  6  5  2  0  0  0  0
  7  8  2  0  0  0  0
  7  6  1  0  0  0  0
  8  9  1  0  0  0  0
  9  5  1  0  0  0  0
 10 35  1  0  0  0  0
 10  7  1  0  0  0  0
 11 10  1  0  0  0  0
 11 12  1  0  0  0  0
 11 37  1  1  0  0  0
 12 13  1  0  0  0  0
 13 38  1  1  0  0  0
 13  8  1  0  0  0  0
 14 28  1  0  0  0  0
 14 15  1  0  0  0  0
 15 39  1  0  0  0  0
 15 16  1  0  0  0  0
 16 18  2  0  0  0  0
 16 12  1  0  0  0  0
 17 43  1  0  0  0  0
 17 14  1  0  0  0  0
 19 24  1  0  0  0  0
 19 13  1  0  0  0  0
 20 19  2  0  0  0  0
 21 20  1  0  0  0  0
 21 22  2  0  0  0  0
 23 45  1  0  0  0  0
 23 24  2  0  0  0  0
 24 46  1  0  0  0  0
 25 21  1  0  0  0  0
 28 11  1  0  0  0  0
 29 28  2  0  0  0  0
 30  1  1  0  0  0  0
 36 10  1  0  0  0  0
 40 15  1  0  0  0  0
 41 17  1  0  0  0  0
 42 17  1  0  0  0  0
 44 20  1  0  0  0  0
 47 26  1  0  0  0  0
 48 27  1  0  0  0  0
M  END
>  <Pose>
4

>  <Score>
-4.85

$$$$

 OpenBabel10142115503D

 48 47  0  0  1  0  0  0  0  0999 V2000
   30.4730   49.6150    5.5280 C   0  0  0  0  0  0  0  0  0  0  0  0
   29.9860   50.2630    6.6520 C   0  0  0  0  0  0  0  0  0  0  0  0
   29.2080   49.6460    7.6690 C   0  0  0  0  0  0  0  0  0  0  0  0
   28.8830   48.2740    7.5660 C   0  0  0  0  0  0  0  0  0  0  0  0
   29.3680   47.6210    6.4450 C   0  0  0  0  0  0  0  0  0  0  0  0
   30.1350   48.2520    5.4550 C   0  0  0  0  0  0  0  0  0  0  0  0
   30.4440   47.2280    4.4460 C   0  0  0  0  0  0  0  0  0  0  0  0
   29.8530   46.0960    4.9050 C   0  0  0  0  0  0  0  0  0  0  0  0
   29.2360   46.3170    6.0510 N   0  0  0  0  0  0  0  0  0  0  0  0
   31.2310   47.3370    3.1700 C   0  0  0  0  0  0  0  0  0  0  0  0
   31.8000   45.9720    2.7640 C   0  0  1  0  0  0  0  0  0  0  0  0
   30.9510   44.8190    3.0870 N   0  0  0  0  0  0  0  0  0  0  0  0
   29.9490   44.8370    4.1380 C   0  0  2  0  0  0  0  0  0  0  0  0
   32.6590   44.7580    0.8310 N   0  0  0  0  0  0  0  0  0  0  0  0
   32.0650   43.5300    1.3600 C   0  0  0  0  0  0  0  0  0  0  0  0
   31.0770   43.6440    2.4330 C   0  0  0  0  0  0  0  0  0  0  0  0
   33.3940   44.7290   -0.4200 C   0  0  0  0  0  0  0  0  0  0  0  0
   30.4170   42.6660    2.6750 O   0  0  0  0  0  0  0  0  0  0  0  0
   28.4860   44.5870    3.6310 C   0  0  0  0  0  0  0  0  0  0  0  0
   27.7640   43.4700    4.0180 C   0  0  0  0  0  0  0  0  0  0  0  0
   26.4660   43.3070    3.5310 C   0  0  0  0  0  0  0  0  0  0  0  0
   25.8970   44.2090    2.6890 C   0  0  0  0  0  0  0  0  0  0  0  0
   26.5700   45.3350    2.2700 C   0  0  0  0  0  0  0  0  0  0  0  0
   27.8500   45.5050    2.7490 C   0  0  0  0  0  0  0  0  0  0  0  0
   25.6180   42.2650    3.8120 O   0  0  0  0  0  0  0  0  0  0  0  0
   24.3650   42.7940    3.2840 C   0  0  0  0  0  0  0  0  0  0  0  0
   24.6300   43.8340    2.3490 O   0  0  0  0  0  0  0  0  0  0  0  0
   32.5560   45.9140    1.4750 C   0  0  0  0  0  0  0  0  0  0  0  0
   33.0420   46.9890    1.0850 O   0  0  0  0  0  0  0  0  0  0  0  0
   31.0360   50.0910    4.8070 H   0  0  0  0  0  0  0  0  0  0  0  0
   30.2030   51.2660    6.7570 H   0  0  0  0  0  0  0  0  0  0  0  0
   30.7570   49.6130    6.8690 H   0  0  0  0  0  0  0  0  0  0  0  0
   28.8820   50.1970    8.4780 H   0  0  0  0  0  0  0  0  0  0  0  0
   28.3190   47.7900    8.2810 H   0  0  0  0  0  0  0  0  0  0  0  0
   32.0370   48.0260    3.3130 H   0  0  0  0  0  0  0  0  0  0  0  0
   30.5800   47.6830    2.3950 H   0  0  0  0  0  0  0  0  0  0  0  0
   32.6100   45.8510    3.4530 H   0  0  0  0  0  0  0  0  0  0  0  0
   30.3090   44.0400    4.7560 H   0  0  0  0  0  0  0  0  0  0  0  0
   32.8650   42.9240    1.7280 H   0  0  0  0  0  0  0  0  0  0  0  0
   31.5130   43.1280    0.5360 H   0  0  0  0  0  0  0  0  0  0  0  0
   33.7530   45.7110   -0.6460 H   0  0  0  0  0  0  0  0  0  0  0  0
   32.7480   44.3960   -1.2050 H   0  0  0  0  0  0  0  0  0  0  0  0
   34.2230   44.0580   -0.3310 H   0  0  0  0  0  0  0  0  0  0  0  0
   28.1780   42.7720    4.6550 H   0  0  0  0  0  0  0  0  0  0  0  0
   26.1360   46.0180    1.6300 H   0  0  0  0  0  0  0  0  0  0  0  0
   28.3760   46.3430    2.4520 H   0  0  0  0  0  0  0  0  0  0  0  0
   23.4250   42.4620    3.5500 H   0  0  0  0  0  0  0  0  0  0  0  0
   24.9300   43.2670    2.5620 H   0  0  0  0  0  0  0  0  0  0  0  0
  2 31  1  0  0  0  0
  2 32  1  0  0  0  0
  2  3  1  0  0  0  0
  3 33  1  0  0  0  0
  4  3  2  0  0  0  0
  4 34  1  0  0  0  0
  5  4  1  0  0  0  0
  6  5  2  0  0  0  0
  7  8  2  0  0  0  0
  7  6  1  0  0  0  0
  8  9  1  0  0  0  0
  9  5  1  0  0  0  0
 10 35  1  0  0  0  0
 10  7  1  0  0  0  0
 11 12  1  0  0  0  0
 11 10  1  0  0  0  0
 11 37  1  1  0  0  0
 12 13  1  0  0  0  0
 13 38  1  1  0  0  0
 13  8  1  0  0  0  0
 14 15  1  0  0  0  0
 14 28  1  0  0  0  0
 15 39  1  0  0  0  0
 15 16  1  0  0  0  0
 16 18  2  0  0  0  0
 16 12  1  0  0  0  0
 17 43  1  0  0  0  0
 17 14  1  0  0  0  0
 19 20  2  0  0  0  0
 19 13  1  0  0  0  0
 20 44  1  0  0  0  0
 21 25  1  0  0  0  0
 21 20  1  0  0  0  0
 22 21  2  0  0  0  0
 23 24  2  0  0  0  0
 24 19  1  0  0  0  0
 26 47  1  0  0  0  0
 27 48  1  0  0  0  0
 28 11  1  0  0  0  0
 29 28  2  0  0  0  0
 30  1  1  0  0  0  0
 36 10  1  0  0  0  0
 40 15  1  0  0  0  0
 41 17  1  0  0  0  0
 42 17  1  0  0  0  0
 45 23  1  0  0  0  0
 46 24  1  0  0  0  0
M  END
>  <Pose>
1

>  <Score>
-4.69

$$$$
