
 OpenBabel10142115503D

 48 47  0  0  1  0  0  0  0  0999 V2000
   24.0590   48.6030   42.7980 C   0  0  0  0  0  0  0  0  0  0  0  0
   22.9320   48.6570   43.6020 C   0  0  0  0  0  0  0  0  0  0  0  0
   22.9530   48.7400   45.0200 C   0  0  0  0  0  0  0  0  0  0  0  0
   24.1920   48.7710   45.7010 C   0  0  0  0  0  0  0  0  0  0  0  0
   25.3210   48.7190   44.9020 C   0  0  0  0  0  0  0  0  0  0  0  0
   25.2750   48.6380   43.5030 C   0  0  0  0  0  0  0  0  0  0  0  0
   26.6690   48.5990   43.0370 C   0  0  0  0  0  0  0  0  0  0  0  0
   27.4170   48.6600   44.1670 C   0  0  0  0  0  0  0  0  0  0  0  0
   26.6480   48.7300   45.2390 N   0  0  0  0  0  0  0  0  0  0  0  0
   27.2170   48.5110   41.6410 C   0  0  0  0  0  0  0  0  0  0  0  0
   28.6350   49.0930   41.5760 C   0  0  1  0  0  0  0  0  0  0  0  0
   29.4540   48.8800   42.7740 N   0  0  0  0  0  0  0  0  0  0  0  0
   28.8920   48.6420   44.0920 C   0  0  2  0  0  0  0  0  0  0  0  0
   30.6610   49.0430   40.2200 N   0  0  0  0  0  0  0  0  0  0  0  0
   31.4600   49.1640   41.4390 C   0  0  0  0  0  0  0  0  0  0  0  0
   30.8030   48.9250   42.7250 C   0  0  0  0  0  0  0  0  0  0  0  0
   31.3170   48.9620   38.9270 C   0  0  0  0  0  0  0  0  0  0  0  0
   31.5170   48.7740   43.6830 O   0  0  0  0  0  0  0  0  0  0  0  0
   29.2880   47.2570   44.7140 C   0  0  0  0  0  0  0  0  0  0  0  0
   28.8190   46.0650   44.1870 C   0  0  0  0  0  0  0  0  0  0  0  0
   29.2080   44.8650   44.7860 C   0  0  0  0  0  0  0  0  0  0  0  0
   30.0280   44.8380   45.8700 C   0  0  0  0  0  0  0  0  0  0  0  0
   30.5210   45.9920   46.4350 C   0  0  0  0  0  0  0  0  0  0  0  0
   30.1440   47.1800   45.8470 C   0  0  0  0  0  0  0  0  0  0  0  0
   28.8380   43.6030   44.3940 O   0  0  0  0  0  0  0  0  0  0  0  0
   29.7680   42.7990   45.1780 C   0  0  0  0  0  0  0  0  0  0  0  0
   30.2640   43.5570   46.2760 O   0  0  0  0  0  0  0  0  0  0  0  0
   29.3350   49.0160   40.2560 C   0  0  0  0  0  0  0  0  0  0  0  0
   28.6000   48.9220   39.2600 O   0  0  0  0  0  0  0  0  0  0  0  0
   24.0100   48.5440   41.7690 H   0  0  0  0  0  0  0  0  0  0  0  0
   22.0110   48.6340   43.1370 H   0  0  0  0  0  0  0  0  0  0  0  0
   23.4330   49.5580   43.5570 H   0  0  0  0  0  0  0  0  0  0  0  0
   22.0690   48.7780   45.5510 H   0  0  0  0  0  0  0  0  0  0  0  0
   24.2500   48.8300   46.7300 H   0  0  0  0  0  0  0  0  0  0  0  0
   26.5810   49.0610   40.9780 H   0  0  0  0  0  0  0  0  0  0  0  0
   27.2550   47.4820   41.3510 H   0  0  0  0  0  0  0  0  0  0  0  0
   28.4490   50.1460   41.6190 H   0  0  0  0  0  0  0  0  0  0  0  0
   29.3120   49.4660   44.6290 H   0  0  0  0  0  0  0  0  0  0  0  0
   31.8520   50.1590   41.4640 H   0  0  0  0  0  0  0  0  0  0  0  0
   32.1820   48.3780   41.3610 H   0  0  0  0  0  0  0  0  0  0  0  0
   30.5790   48.8790   38.1580 H   0  0  0  0  0  0  0  0  0  0  0  0
   31.9550   48.1040   38.9040 H   0  0  0  0  0  0  0  0  0  0  0  0
   31.9010   49.8450   38.7680 H   0  0  0  0  0  0  0  0  0  0  0  0
   28.1930   46.0630   43.3660 H   0  0  0  0  0  0  0  0  0  0  0  0
   31.1420   45.9690   47.2590 H   0  0  0  0  0  0  0  0  0  0  0  0
   30.5020   48.0600   46.2510 H   0  0  0  0  0  0  0  0  0  0  0  0
   30.0290   41.8230   44.9670 H   0  0  0  0  0  0  0  0  0  0  0  0
   29.6970   43.5240   45.9090 H   0  0  0  0  0  0  0  0  0  0  0  0
  2  3  1  0  0  0  0
  3 33  1  0  0  0  0
  3  4  2  0  0  0  0
  4 34  1  0  0  0  0
  5  9  1  0  0  0  0
  5  4  1  0  0  0  0
  6  5  2  0  0  0  0
  7  6  1  0  0  0  0
  7  8  2  0  0  0  0
  8  9  1  0  0  0  0
 10  7  1  0  0  0  0
 11 37  1  1  0  0  0
 11 10  1  0  0  0  0
 11 12  1  0  0  0  0
 12 13  1  0  0  0  0
 13  8  1  0  0  0  0
 13 38  1  1  0  0  0
 13 19  1  0  0  0  0
 14 28  1  0  0  0  0
 14 15  1  0  0  0  0
 15 39  1  0  0  0  0
 15 16  1  0  0  0  0
 16 12  1  0  0  0  0
 16 18  2  0  0  0  0
 17 14  1  0  0  0  0
 19 24  1  0  0  0  0
 20 19  2  0  0  0  0
 20 21  1  0  0  0  0
 21 22  2  0  0  0  0
 23 45  1  0  0  0  0
 24 46  1  0  0  0  0
 24 23  2  0  0  0  0
 25 21  1  0  0  0  0
 28 11  1  0  0  0  0
 29 28  2  0  0  0  0
 30  1  1  0  0  0  0
 31  2  1  0  0  0  0
 32  2  1  0  0  0  0
 35 10  1  0  0  0  0
 36 10  1  0  0  0  0
 40 15  1  0  0  0  0
 41 17  1  0  0  0  0
 42 17  1  0  0  0  0
 43 17  1  0  0  0  0
 44 20  1  0  0  0  0
 47 26  1  0  0  0  0
 48 27  1  0  0  0  0
M  END
>  <Pose>
4

>  <Score>
-3.79

$$$$

 OpenBabel10142115503D

 48 47  0  0  1  0  0  0  0  0999 V2000
   28.8090   43.9290   44.8220 C   0  0  0  0  0  0  0  0  0  0  0  0
   29.8820   43.1910   45.2940 C   0  0  0  0  0  0  0  0  0  0  0  0
   31.1770   43.7170   45.5500 C   0  0  0  0  0  0  0  0  0  0  0  0
   31.4330   45.0880   45.3180 C   0  0  0  0  0  0  0  0  0  0  0  0
   30.3640   45.8310   44.8470 C   0  0  0  0  0  0  0  0  0  0  0  0
   29.0940   45.2880   44.6020 C   0  0  0  0  0  0  0  0  0  0  0  0
   28.2530   46.3890   44.1130 C   0  0  0  0  0  0  0  0  0  0  0  0
   29.0670   47.4740   44.1050 C   0  0  0  0  0  0  0  0  0  0  0  0
   30.2780   47.1590   44.5260 N   0  0  0  0  0  0  0  0  0  0  0  0
   26.8090   46.3880   43.6950 C   0  0  0  0  0  0  0  0  0  0  0  0
   26.2000   47.7890   43.8400 C   0  0  1  0  0  0  0  0  0  0  0  0
   27.1150   48.9010   43.5590 N   0  0  0  0  0  0  0  0  0  0  0  0
   28.5600   48.7890   43.6610 C   0  0  2  0  0  0  0  0  0  0  0  0
   24.3450   49.1580   43.0460 N   0  0  0  0  0  0  0  0  0  0  0  0
   25.2140   50.3330   43.0920 C   0  0  0  0  0  0  0  0  0  0  0  0
   26.6570   50.1240   43.2150 C   0  0  0  0  0  0  0  0  0  0  0  0
   22.9650   49.2920   42.6170 C   0  0  0  0  0  0  0  0  0  0  0  0
   27.3680   51.0710   42.9940 O   0  0  0  0  0  0  0  0  0  0  0  0
   29.3180   49.0540   42.3130 C   0  0  0  0  0  0  0  0  0  0  0  0
   28.6880   48.9110   41.0880 C   0  0  0  0  0  0  0  0  0  0  0  0
   29.4180   49.1620   39.9230 C   0  0  0  0  0  0  0  0  0  0  0  0
   30.7230   49.5380   39.9630 C   0  0  0  0  0  0  0  0  0  0  0  0
   31.3980   49.6920   41.1530 C   0  0  0  0  0  0  0  0  0  0  0  0
   30.6840   49.4490   42.3060 C   0  0  0  0  0  0  0  0  0  0  0  0
   28.9510   49.0680   38.6360 O   0  0  0  0  0  0  0  0  0  0  0  0
   30.0370   49.7220   37.9140 C   0  0  0  0  0  0  0  0  0  0  0  0
   31.2200   49.7220   38.7050 O   0  0  0  0  0  0  0  0  0  0  0  0
   24.7810   47.9550   43.3990 C   0  0  0  0  0  0  0  0  0  0  0  0
   24.0940   46.9210   43.3890 O   0  0  0  0  0  0  0  0  0  0  0  0
   27.8790   43.5160   44.6470 H   0  0  0  0  0  0  0  0  0  0  0  0
   29.7300   42.1860   45.4730 H   0  0  0  0  0  0  0  0  0  0  0  0
   29.4970   43.8340   46.0040 H   0  0  0  0  0  0  0  0  0  0  0  0
   31.9260   43.1020   45.9040 H   0  0  0  0  0  0  0  0  0  0  0  0
   32.3600   45.5080   45.4890 H   0  0  0  0  0  0  0  0  0  0  0  0
   26.2650   45.7040   44.3110 H   0  0  0  0  0  0  0  0  0  0  0  0
   26.7490   46.0920   42.6680 H   0  0  0  0  0  0  0  0  0  0  0  0
   26.0700   47.8700   44.8990 H   0  0  0  0  0  0  0  0  0  0  0  0
   28.7580   49.5420   44.3960 H   0  0  0  0  0  0  0  0  0  0  0  0
   24.9070   50.9220   43.9300 H   0  0  0  0  0  0  0  0  0  0  0  0
   25.0950   50.7880   42.1310 H   0  0  0  0  0  0  0  0  0  0  0  0
   22.4870   48.3350   42.6470 H   0  0  0  0  0  0  0  0  0  0  0  0
   22.9370   49.6730   41.6180 H   0  0  0  0  0  0  0  0  0  0  0  0
   22.4520   49.9670   43.2710 H   0  0  0  0  0  0  0  0  0  0  0  0
   27.6980   48.6250   41.0360 H   0  0  0  0  0  0  0  0  0  0  0  0
   32.3900   49.9760   41.1790 H   0  0  0  0  0  0  0  0  0  0  0  0
   31.1660   49.5610   43.2120 H   0  0  0  0  0  0  0  0  0  0  0  0
   29.9580   50.1250   36.9670 H   0  0  0  0  0  0  0  0  0  0  0  0
   30.6750   49.3300   38.6240 H   0  0  0  0  0  0  0  0  0  0  0  0
  2 31  1  0  0  0  0
  2  3  1  0  0  0  0
  2 32  1  0  0  0  0
  3 33  1  0  0  0  0
  4 34  1  0  0  0  0
  4  3  2  0  0  0  0
  5  4  1  0  0  0  0
  6  5  1  0  0  0  0
  7  6  1  0  0  0  0
  8  7  2  0  0  0  0
  8  9  1  0  0  0  0
  9  5  2  0  0  0  0
 10 11  1  0  0  0  0
 10  7  1  0  0  0  0
 10 35  1  0  0  0  0
 11 37  1  1  0  0  0
 12 13  1  0  0  0  0
 12 11  1  0  0  0  0
 13  8  1  0  0  0  0
 13 38  1  1  0  0  0
 14 15  1  0  0  0  0
 14 28  1  0  0  0  0
 15 16  1  0  0  0  0
 15 39  1  0  0  0  0
 16 12  1  0  0  0  0
 17 41  1  0  0  0  0
 17 14  1  0  0  0  0
 17 43  1  0  0  0  0
 18 16  2  0  0  0  0
 19 13  1  0  0  0  0
 20 19  2  0  0  0  0
 21 22  2  0  0  0  0
 21 20  1  0  0  0  0
 23 45  1  0  0  0  0
 23 24  2  0  0  0  0
 24 19  1  0  0  0  0
 24 46  1  0  0  0  0
 25 21  1  0  0  0  0
 28 11  1  0  0  0  0
 29 28  2  0  0  0  0
 30  1  1  0  0  0  0
 36 10  1  0  0  0  0
 40 15  1  0  0  0  0
 42 17  1  0  0  0  0
 44 20  1  0  0  0  0
 47 26  1  0  0  0  0
 48 27  1  0  0  0  0
M  END
>  <Pose>
1

>  <Score>
-3.51

$$$$
