
 OpenBabel10142115503D

 48 47  0  0  1  0  0  0  0  0999 V2000
   52.0250   37.7540   -2.7110 C   0  0  0  0  0  0  0  0  0  0  0  0
   52.3290   36.4060   -2.8160 C   0  0  0  0  0  0  0  0  0  0  0  0
   51.6600   35.3680   -2.1120 C   0  0  0  0  0  0  0  0  0  0  0  0
   50.6040   35.6900   -1.2290 C   0  0  0  0  0  0  0  0  0  0  0  0
   50.2960   37.0350   -1.1200 C   0  0  0  0  0  0  0  0  0  0  0  0
   50.9710   38.0420   -1.8270 C   0  0  0  0  0  0  0  0  0  0  0  0
   50.3530   39.3170   -1.4360 C   0  0  0  0  0  0  0  0  0  0  0  0
   49.3830   38.9790   -0.5490 C   0  0  0  0  0  0  0  0  0  0  0  0
   49.3460   37.6710   -0.3670 N   0  0  0  0  0  0  0  0  0  0  0  0
   50.6730   40.7180   -1.8740 C   0  0  0  0  0  0  0  0  0  0  0  0
   49.4510   41.6320   -1.7080 C   0  0  1  0  0  0  0  0  0  0  0  0
   48.5950   41.3280   -0.5560 N   0  0  0  0  0  0  0  0  0  0  0  0
   48.5380   40.0190    0.0710 C   0  0  2  0  0  0  0  0  0  0  0  0
   48.8370   43.9830   -1.5050 N   0  0  0  0  0  0  0  0  0  0  0  0
   47.7580   43.6040   -0.5920 C   0  0  0  0  0  0  0  0  0  0  0  0
   47.7720   42.2570   -0.0230 C   0  0  0  0  0  0  0  0  0  0  0  0
   49.0420   45.3780   -1.8470 C   0  0  0  0  0  0  0  0  0  0  0  0
   47.0380   42.0500    0.9100 O   0  0  0  0  0  0  0  0  0  0  0  0
   48.9730   40.0140    1.5780 C   0  0  0  0  0  0  0  0  0  0  0  0
   48.2130   39.3850    2.5510 C   0  0  0  0  0  0  0  0  0  0  0  0
   48.6560   39.4160    3.8750 C   0  0  0  0  0  0  0  0  0  0  0  0
   49.8060   40.0470    4.2320 C   0  0  0  0  0  0  0  0  0  0  0  0
   50.5970   40.6890    3.3070 C   0  0  0  0  0  0  0  0  0  0  0  0
   50.1690   40.6610    1.9980 C   0  0  0  0  0  0  0  0  0  0  0  0
   48.0280   38.8480    4.9550 O   0  0  0  0  0  0  0  0  0  0  0  0
   49.0830   38.9490    5.9570 C   0  0  0  0  0  0  0  0  0  0  0  0
   50.0270   39.9440    5.5740 O   0  0  0  0  0  0  0  0  0  0  0  0
   49.6390   43.0760   -2.0480 C   0  0  0  0  0  0  0  0  0  0  0  0
   50.5670   43.3300   -2.8330 O   0  0  0  0  0  0  0  0  0  0  0  0
   52.5300   38.4840   -3.2370 H   0  0  0  0  0  0  0  0  0  0  0  0
   53.0960   36.1360   -3.4510 H   0  0  0  0  0  0  0  0  0  0  0  0
   51.4360   36.6500   -3.2720 H   0  0  0  0  0  0  0  0  0  0  0  0
   51.9430   34.3850   -2.2450 H   0  0  0  0  0  0  0  0  0  0  0  0
   50.0950   34.9670   -0.6970 H   0  0  0  0  0  0  0  0  0  0  0  0
   50.9640   40.7060   -2.9040 H   0  0  0  0  0  0  0  0  0  0  0  0
   51.4690   41.0960   -1.2670 H   0  0  0  0  0  0  0  0  0  0  0  0
   48.8330   41.3340   -2.5290 H   0  0  0  0  0  0  0  0  0  0  0  0
   47.5000   39.7930   -0.0550 H   0  0  0  0  0  0  0  0  0  0  0  0
   46.8380   43.7130   -1.1270 H   0  0  0  0  0  0  0  0  0  0  0  0
   47.8870   44.2490    0.2520 H   0  0  0  0  0  0  0  0  0  0  0  0
   49.8690   45.4630   -2.5200 H   0  0  0  0  0  0  0  0  0  0  0  0
   49.2480   45.9370   -0.9570 H   0  0  0  0  0  0  0  0  0  0  0  0
   48.1610   45.7650   -2.3140 H   0  0  0  0  0  0  0  0  0  0  0  0
   47.3360   38.9020    2.3010 H   0  0  0  0  0  0  0  0  0  0  0  0
   51.4690   41.1690    3.5810 H   0  0  0  0  0  0  0  0  0  0  0  0
   50.7460   41.1330    1.2840 H   0  0  0  0  0  0  0  0  0  0  0  0
   49.1380   38.3830    6.8180 H   0  0  0  0  0  0  0  0  0  0  0  0
   49.3660   39.8280    5.4950 H   0  0  0  0  0  0  0  0  0  0  0  0
  2  3  1  0  0  0  0
  3  4  2  0  0  0  0
  4  5  1  0  0  0  0
  4 34  1  0  0  0  0
  5  9  1  0  0  0  0
  6  7  1  0  0  0  0
  6  5  2  0  0  0  0
  7  8  2  0  0  0  0
  8  9  1  0  0  0  0
  8 13  1  0  0  0  0
 10 11  1  0  0  0  0
 10  7  1  0  0  0  0
 10 36  1  0  0  0  0
 11 37  1  6  0  0  0
 11 12  1  0  0  0  0
 12 16  1  0  0  0  0
 12 13  1  0  0  0  0
 13 38  1  6  0  0  0
 13 19  1  0  0  0  0
 14 15  1  0  0  0  0
 15 16  1  0  0  0  0
 15 40  1  0  0  0  0
 16 18  2  0  0  0  0
 17 14  1  0  0  0  0
 17 42  1  0  0  0  0
 19 24  1  0  0  0  0
 19 20  2  0  0  0  0
 20 21  1  0  0  0  0
 21 22  2  0  0  0  0
 21 25  1  0  0  0  0
 23 45  1  0  0  0  0
 24 23  2  0  0  0  0
 26 47  1  0  0  0  0
 28 11  1  0  0  0  0
 28 14  1  0  0  0  0
 29 28  2  0  0  0  0
 30  1  1  0  0  0  0
 31  2  1  0  0  0  0
 32  2  1  0  0  0  0
 33  3  1  0  0  0  0
 35 10  1  0  0  0  0
 39 15  1  0  0  0  0
 41 17  1  0  0  0  0
 43 17  1  0  0  0  0
 44 20  1  0  0  0  0
 46 24  1  0  0  0  0
 48 27  1  0  0  0  0
M  END
>  <Pose>
1

>  <Score>
-3.25

$$$$

 OpenBabel10142115503D

 48 47  0  0  1  0  0  0  0  0999 V2000
   54.4330   42.9580   -0.2720 C   0  0  0  0  0  0  0  0  0  0  0  0
   55.2030   43.4650   -1.3070 C   0  0  0  0  0  0  0  0  0  0  0  0
   55.2400   42.9330   -2.6240 C   0  0  0  0  0  0  0  0  0  0  0  0
   54.4520   41.8050   -2.9450 C   0  0  0  0  0  0  0  0  0  0  0  0
   53.6800   41.2940   -1.9150 C   0  0  0  0  0  0  0  0  0  0  0  0
   53.6600   41.8380   -0.6220 C   0  0  0  0  0  0  0  0  0  0  0  0
   52.7290   41.0160    0.1650 C   0  0  0  0  0  0  0  0  0  0  0  0
   52.2790   40.0720   -0.6990 C   0  0  0  0  0  0  0  0  0  0  0  0
   52.8210   40.2290   -1.8930 N   0  0  0  0  0  0  0  0  0  0  0  0
   52.3210   41.1340    1.6070 C   0  0  0  0  0  0  0  0  0  0  0  0
   50.9440   40.4980    1.8350 C   0  0  1  0  0  0  0  0  0  0  0  0
   50.6570   39.3160    1.0150 N   0  0  0  0  0  0  0  0  0  0  0  0
   51.3110   39.0490   -0.2540 C   0  0  2  0  0  0  0  0  0  0  0  0
   49.5330   39.5780    3.5990 N   0  0  0  0  0  0  0  0  0  0  0  0
   49.0120   38.5970    2.6460 C   0  0  0  0  0  0  0  0  0  0  0  0
   49.7270   38.4090    1.3840 C   0  0  0  0  0  0  0  0  0  0  0  0
   49.0570   39.5820    4.9700 C   0  0  0  0  0  0  0  0  0  0  0  0
   49.4430   37.4340    0.7350 O   0  0  0  0  0  0  0  0  0  0  0  0
   52.1320   37.7120   -0.2800 C   0  0  0  0  0  0  0  0  0  0  0  0
   51.8440   36.7010   -1.1820 C   0  0  0  0  0  0  0  0  0  0  0  0
   52.6120   35.5350   -1.1540 C   0  0  0  0  0  0  0  0  0  0  0  0
   53.6280   35.3680   -0.2670 C   0  0  0  0  0  0  0  0  0  0  0  0
   53.9550   36.3380    0.6520 C   0  0  0  0  0  0  0  0  0  0  0  0
   53.2040   37.4930    0.6290 C   0  0  0  0  0  0  0  0  0  0  0  0
   52.4620   34.4430   -1.9720 O   0  0  0  0  0  0  0  0  0  0  0  0
   53.6950   33.7220   -1.6780 C   0  0  0  0  0  0  0  0  0  0  0  0
   54.2280   34.1530   -0.4300 O   0  0  0  0  0  0  0  0  0  0  0  0
   50.4340   40.4840    3.2420 C   0  0  0  0  0  0  0  0  0  0  0  0
   50.9100   41.3470    3.9980 O   0  0  0  0  0  0  0  0  0  0  0  0
   54.4280   43.3690    0.6750 H   0  0  0  0  0  0  0  0  0  0  0  0
   55.7920   44.2880   -1.1060 H   0  0  0  0  0  0  0  0  0  0  0  0
   54.1960   43.6550   -1.4280 H   0  0  0  0  0  0  0  0  0  0  0  0
   55.8390   43.3690   -3.3420 H   0  0  0  0  0  0  0  0  0  0  0  0
   54.4510   41.3870   -3.8890 H   0  0  0  0  0  0  0  0  0  0  0  0
   52.2790   42.1690    1.8760 H   0  0  0  0  0  0  0  0  0  0  0  0
   53.0410   40.6220    2.2110 H   0  0  0  0  0  0  0  0  0  0  0  0
   50.2850   41.2280    1.4130 H   0  0  0  0  0  0  0  0  0  0  0  0
   50.4610   39.0190   -0.9040 H   0  0  0  0  0  0  0  0  0  0  0  0
   48.0120   38.8910    2.4040 H   0  0  0  0  0  0  0  0  0  0  0  0
   49.1150   37.6590    3.1500 H   0  0  0  0  0  0  0  0  0  0  0  0
   49.5460   40.3620    5.5150 H   0  0  0  0  0  0  0  0  0  0  0  0
   49.2730   38.6390    5.4260 H   0  0  0  0  0  0  0  0  0  0  0  0
   48.0000   39.7490    4.9800 H   0  0  0  0  0  0  0  0  0  0  0  0
   51.0750   36.8080   -1.8630 H   0  0  0  0  0  0  0  0  0  0  0  0
   54.7260   36.2080    1.3260 H   0  0  0  0  0  0  0  0  0  0  0  0
   53.4310   38.2380    1.3070 H   0  0  0  0  0  0  0  0  0  0  0  0
   54.1190   33.0040   -2.2850 H   0  0  0  0  0  0  0  0  0  0  0  0
   53.6180   34.0880   -0.7160 H   0  0  0  0  0  0  0  0  0  0  0  0
  1 30  1  0  0  0  0
  2 31  1  0  0  0  0
  3  2  1  0  0  0  0
  4  3  2  0  0  0  0
  4  5  1  0  0  0  0
  5  9  2  0  0  0  0
  5  6  1  0  0  0  0
  6  7  1  0  0  0  0
  7 10  1  0  0  0  0
  8 13  1  0  0  0  0
  8  7  2  0  0  0  0
  9  8  1  0  0  0  0
 10 11  1  0  0  0  0
 10 35  1  0  0  0  0
 10 36  1  0  0  0  0
 11 37  1  6  0  0  0
 11 28  1  0  0  0  0
 12 16  1  0  0  0  0
 12 11  1  0  0  0  0
 13 38  1  6  0  0  0
 13 12  1  0  0  0  0
 14 17  1  0  0  0  0
 15 40  1  0  0  0  0
 15 14  1  0  0  0  0
 16 15  1  0  0  0  0
 17 43  1  0  0  0  0
 17 42  1  0  0  0  0
 17 41  1  0  0  0  0
 18 16  2  0  0  0  0
 19 13  1  0  0  0  0
 19 24  1  0  0  0  0
 20 21  1  0  0  0  0
 20 19  2  0  0  0  0
 21 22  2  0  0  0  0
 23 45  1  0  0  0  0
 24 23  2  0  0  0  0
 24 46  1  0  0  0  0
 25 21  1  0  0  0  0
 28 14  1  0  0  0  0
 28 29  2  0  0  0  0
 32  2  1  0  0  0  0
 33  3  1  0  0  0  0
 34  4  1  0  0  0  0
 39 15  1  0  0  0  0
 44 20  1  0  0  0  0
 47 26  1  0  0  0  0
 48 27  1  0  0  0  0
M  END
>  <Pose>
1

>  <Score>
-3.11

$$$$

 OpenBabel10142115503D

 48 47  0  0  1  0  0  0  0  0999 V2000
   54.4570   36.3360   -1.5040 C   0  0  0  0  0  0  0  0  0  0  0  0
   55.6640   35.8680   -1.0100 C   0  0  0  0  0  0  0  0  0  0  0  0
   55.9570   35.6830    0.3680 C   0  0  0  0  0  0  0  0  0  0  0  0
   54.9770   35.9890    1.3390 C   0  0  0  0  0  0  0  0  0  0  0  0
   53.7690   36.4560    0.8510 C   0  0  0  0  0  0  0  0  0  0  0  0
   53.5020   36.6300   -0.5150 C   0  0  0  0  0  0  0  0  0  0  0  0
   52.1270   37.1410   -0.6140 C   0  0  0  0  0  0  0  0  0  0  0  0
   51.6940   37.2290    0.6690 C   0  0  0  0  0  0  0  0  0  0  0  0
   52.6310   36.8360    1.5120 N   0  0  0  0  0  0  0  0  0  0  0  0
   51.3200   37.5070   -1.8270 C   0  0  0  0  0  0  0  0  0  0  0  0
   49.8180   37.4070   -1.5310 C   0  0  1  0  0  0  0  0  0  0  0  0
   49.4240   37.7710   -0.1650 N   0  0  0  0  0  0  0  0  0  0  0  0
   50.3310   37.7160    0.9680 C   0  0  2  0  0  0  0  0  0  0  0  0
   47.6550   38.1980   -2.3320 N   0  0  0  0  0  0  0  0  0  0  0  0
   47.1770   38.2380   -0.9500 C   0  0  0  0  0  0  0  0  0  0  0  0
   48.1630   38.1560    0.1280 C   0  0  0  0  0  0  0  0  0  0  0  0
   46.7710   38.5830   -3.4170 C   0  0  0  0  0  0  0  0  0  0  0  0
   47.7880   38.4470    1.2350 O   0  0  0  0  0  0  0  0  0  0  0  0
   50.5670   39.1010    1.6660 C   0  0  0  0  0  0  0  0  0  0  0  0
   51.0070   40.2050    0.9550 C   0  0  0  0  0  0  0  0  0  0  0  0
   51.1980   41.4100    1.6340 C   0  0  0  0  0  0  0  0  0  0  0  0
   50.9660   41.5250    2.9690 C   0  0  0  0  0  0  0  0  0  0  0  0
   50.5310   40.4590    3.7230 C   0  0  0  0  0  0  0  0  0  0  0  0
   50.3380   39.2680    3.0600 C   0  0  0  0  0  0  0  0  0  0  0  0
   51.6260   42.5930    1.0870 O   0  0  0  0  0  0  0  0  0  0  0  0
   51.3390   43.5120    2.1820 C   0  0  0  0  0  0  0  0  0  0  0  0
   51.2230   42.7920    3.4050 O   0  0  0  0  0  0  0  0  0  0  0  0
   48.8860   37.8040   -2.6310 C   0  0  0  0  0  0  0  0  0  0  0  0
   49.3510   37.7410   -3.7810 O   0  0  0  0  0  0  0  0  0  0  0  0
   54.2750   36.4580   -2.5120 H   0  0  0  0  0  0  0  0  0  0  0  0
   56.4030   35.6370   -1.6920 H   0  0  0  0  0  0  0  0  0  0  0  0
   54.9030   35.1760   -0.9240 H   0  0  0  0  0  0  0  0  0  0  0  0
   56.8820   35.3280    0.6580 H   0  0  0  0  0  0  0  0  0  0  0  0
   55.1510   35.8700    2.3500 H   0  0  0  0  0  0  0  0  0  0  0  0
   51.5650   36.8400   -2.6270 H   0  0  0  0  0  0  0  0  0  0  0  0
   51.5490   38.5160   -2.1010 H   0  0  0  0  0  0  0  0  0  0  0  0
   49.6570   36.3490   -1.5330 H   0  0  0  0  0  0  0  0  0  0  0  0
   49.8090   37.0250    1.5960 H   0  0  0  0  0  0  0  0  0  0  0  0
   46.5010   37.4180   -0.8240 H   0  0  0  0  0  0  0  0  0  0  0  0
   46.7520   39.2150   -0.8460 H   0  0  0  0  0  0  0  0  0  0  0  0
   47.2900   38.4910   -4.3490 H   0  0  0  0  0  0  0  0  0  0  0  0
   46.4600   39.5980   -3.2810 H   0  0  0  0  0  0  0  0  0  0  0  0
   45.9130   37.9440   -3.4220 H   0  0  0  0  0  0  0  0  0  0  0  0
   51.1910   40.1390   -0.0590 H   0  0  0  0  0  0  0  0  0  0  0  0
   50.3570   40.5490    4.7370 H   0  0  0  0  0  0  0  0  0  0  0  0
   50.0090   38.4530    3.6020 H   0  0  0  0  0  0  0  0  0  0  0  0
   51.2350   44.5340    2.0860 H   0  0  0  0  0  0  0  0  0  0  0  0
   51.5620   42.7340    2.8230 H   0  0  0  0  0  0  0  0  0  0  0  0
  2 32  1  0  0  0  0
  2  3  1  0  0  0  0
  3 33  1  0  0  0  0
  3  4  2  0  0  0  0
  4 34  1  0  0  0  0
  5  4  1  0  0  0  0
  5  9  1  0  0  0  0
  6  5  2  0  0  0  0
  7  6  1  0  0  0  0
  7  8  2  0  0  0  0
  8 13  1  0  0  0  0
  8  9  1  0  0  0  0
 10 11  1  0  0  0  0
 10  7  1  0  0  0  0
 11 37  1  1  0  0  0
 11 12  1  0  0  0  0
 12 16  1  0  0  0  0
 12 13  1  0  0  0  0
 13 38  1  1  0  0  0
 13 19  1  0  0  0  0
 14 15  1  0  0  0  0
 15 40  1  0  0  0  0
 15 39  1  0  0  0  0
 15 16  1  0  0  0  0
 16 18  2  0  0  0  0
 17 42  1  0  0  0  0
 17 14  1  0  0  0  0
 19 24  1  0  0  0  0
 20 21  1  0  0  0  0
 20 19  2  0  0  0  0
 21 22  2  0  0  0  0
 23 45  1  0  0  0  0
 24 46  1  0  0  0  0
 24 23  2  0  0  0  0
 25 21  1  0  0  0  0
 28 14  1  0  0  0  0
 28 11  1  0  0  0  0
 29 28  2  0  0  0  0
 30  1  1  0  0  0  0
 31  2  1  0  0  0  0
 35 10  1  0  0  0  0
 36 10  1  0  0  0  0
 41 17  1  0  0  0  0
 43 17  1  0  0  0  0
 44 20  1  0  0  0  0
 47 26  1  0  0  0  0
 48 27  1  0  0  0  0
M  END
>  <Pose>
1

>  <Score>
-3.09

$$$$

 OpenBabel10142115503D

 48 47  0  0  1  0  0  0  0  0999 V2000
   53.5680   43.5950   -0.2030 C   0  0  0  0  0  0  0  0  0  0  0  0
   54.1700   44.3390   -1.2050 C   0  0  0  0  0  0  0  0  0  0  0  0
   53.6790   44.4570   -2.5330 C   0  0  0  0  0  0  0  0  0  0  0  0
   52.4940   43.7820   -2.9020 C   0  0  0  0  0  0  0  0  0  0  0  0
   51.8870   43.0370   -1.9060 C   0  0  0  0  0  0  0  0  0  0  0  0
   52.3910   42.9360   -0.6010 C   0  0  0  0  0  0  0  0  0  0  0  0
   51.4700   42.0620    0.1400 C   0  0  0  0  0  0  0  0  0  0  0  0
   50.5140   41.7200   -0.7590 C   0  0  0  0  0  0  0  0  0  0  0  0
   50.7480   42.2780   -1.9330 N   0  0  0  0  0  0  0  0  0  0  0  0
   51.5160   41.6050    1.5710 C   0  0  0  0  0  0  0  0  0  0  0  0
   50.1120   41.2340    2.0670 C   0  0  1  0  0  0  0  0  0  0  0  0
   49.2310   40.6310    1.0610 N   0  0  0  0  0  0  0  0  0  0  0  0
   49.4010   40.8300   -0.3690 C   0  0  2  0  0  0  0  0  0  0  0  0
   48.9760   39.9370    3.7920 N   0  0  0  0  0  0  0  0  0  0  0  0
   47.9200   39.6170    2.8310 C   0  0  0  0  0  0  0  0  0  0  0  0
   48.1730   39.8690    1.4130 C   0  0  0  0  0  0  0  0  0  0  0  0
   48.9020   39.4270    5.1480 C   0  0  0  0  0  0  0  0  0  0  0  0
   47.4120   39.3690    0.6240 O   0  0  0  0  0  0  0  0  0  0  0  0
   49.6700   39.5090   -1.1690 C   0  0  0  0  0  0  0  0  0  0  0  0
   50.5990   38.5760   -0.7380 C   0  0  0  0  0  0  0  0  0  0  0  0
   50.7920   37.4190   -1.4960 C   0  0  0  0  0  0  0  0  0  0  0  0
   50.0980   37.1880   -2.6410 C   0  0  0  0  0  0  0  0  0  0  0  0
   49.1660   38.0820   -3.1170 C   0  0  0  0  0  0  0  0  0  0  0  0
   48.9670   39.2250   -2.3730 C   0  0  0  0  0  0  0  0  0  0  0  0
   51.6670   36.3990   -1.2140 O   0  0  0  0  0  0  0  0  0  0  0  0
   51.2060   35.3870   -2.1570 C   0  0  0  0  0  0  0  0  0  0  0  0
   50.4600   35.9990   -3.2040 O   0  0  0  0  0  0  0  0  0  0  0  0
   50.0100   40.6990    3.4610 C   0  0  0  0  0  0  0  0  0  0  0  0
   50.9340   41.0130    4.2280 O   0  0  0  0  0  0  0  0  0  0  0  0
   53.9500   43.5300    0.7530 H   0  0  0  0  0  0  0  0  0  0  0  0
   55.0390   44.8440   -0.9690 H   0  0  0  0  0  0  0  0  0  0  0  0
   53.2970   44.7680   -0.8600 H   0  0  0  0  0  0  0  0  0  0  0  0
   54.1850   45.0340   -3.2230 H   0  0  0  0  0  0  0  0  0  0  0  0
   52.1050   43.8400   -3.8570 H   0  0  0  0  0  0  0  0  0  0  0  0
   51.9060   42.3930    2.1790 H   0  0  0  0  0  0  0  0  0  0  0  0
   52.1420   40.7400    1.6350 H   0  0  0  0  0  0  0  0  0  0  0  0
   49.6620   42.1940    2.2100 H   0  0  0  0  0  0  0  0  0  0  0  0
   48.4560   41.2710   -0.6120 H   0  0  0  0  0  0  0  0  0  0  0  0
   47.0580   40.1880    3.1060 H   0  0  0  0  0  0  0  0  0  0  0  0
   47.8170   38.5540    2.8960 H   0  0  0  0  0  0  0  0  0  0  0  0
   49.7550   39.7610    5.7020 H   0  0  0  0  0  0  0  0  0  0  0  0
   48.8880   38.3570    5.1270 H   0  0  0  0  0  0  0  0  0  0  0  0
   48.0100   39.7860    5.6160 H   0  0  0  0  0  0  0  0  0  0  0  0
   51.1380   38.7330    0.1280 H   0  0  0  0  0  0  0  0  0  0  0  0
   48.6420   37.9050   -3.9880 H   0  0  0  0  0  0  0  0  0  0  0  0
   48.2720   39.9100   -2.7070 H   0  0  0  0  0  0  0  0  0  0  0  0
   51.3930   34.3760   -2.0770 H   0  0  0  0  0  0  0  0  0  0  0  0
   50.9730   36.1640   -2.7960 H   0  0  0  0  0  0  0  0  0  0  0  0
  1 30  1  0  0  0  0
  2 31  1  0  0  0  0
  2 32  1  0  0  0  0
  3  2  1  0  0  0  0
  4  3  2  0  0  0  0
  4  5  1  0  0  0  0
  5  6  1  0  0  0  0
  6  7  1  0  0  0  0
  7 10  1  0  0  0  0
  8 13  1  0  0  0  0
  8  7  2  0  0  0  0
  9  5  2  0  0  0  0
  9  8  1  0  0  0  0
 10 36  1  0  0  0  0
 10 11  1  0  0  0  0
 10 35  1  0  0  0  0
 11 37  1  1  0  0  0
 11 28  1  0  0  0  0
 12 16  1  0  0  0  0
 12 11  1  0  0  0  0
 13 38  1  6  0  0  0
 13 12  1  0  0  0  0
 14 17  1  0  0  0  0
 15 40  1  0  0  0  0
 15 39  1  0  0  0  0
 15 14  1  0  0  0  0
 16 15  1  0  0  0  0
 17 43  1  0  0  0  0
 17 41  1  0  0  0  0
 18 16  2  0  0  0  0
 19 20  2  0  0  0  0
 19 13  1  0  0  0  0
 20 44  1  0  0  0  0
 21 25  1  0  0  0  0
 21 20  1  0  0  0  0
 22 21  2  0  0  0  0
 23 24  2  0  0  0  0
 24 19  1  0  0  0  0
 26 47  1  0  0  0  0
 27 48  1  0  0  0  0
 28 14  1  0  0  0  0
 28 29  2  0  0  0  0
 33  3  1  0  0  0  0
 34  4  1  0  0  0  0
 42 17  1  0  0  0  0
 45 23  1  0  0  0  0
 46 24  1  0  0  0  0
M  END
>  <Pose>
1

>  <Score>
-2.93

$$$$

 OpenBabel10142115503D

 48 47  0  0  1  0  0  0  0  0999 V2000
   52.2020   36.7710   -1.0130 C   0  0  0  0  0  0  0  0  0  0  0  0
   53.0910   35.9000   -0.4040 C   0  0  0  0  0  0  0  0  0  0  0  0
   53.5070   35.9840    0.9520 C   0  0  0  0  0  0  0  0  0  0  0  0
   53.0030   37.0170    1.7750 C   0  0  0  0  0  0  0  0  0  0  0  0
   52.1130   37.8900    1.1720 C   0  0  0  0  0  0  0  0  0  0  0  0
   51.7170   37.7850   -0.1690 C   0  0  0  0  0  0  0  0  0  0  0  0
   50.7790   38.8890   -0.4180 C   0  0  0  0  0  0  0  0  0  0  0  0
   50.6920   39.5480    0.7650 C   0  0  0  0  0  0  0  0  0  0  0  0
   51.4540   38.9770    1.6800 N   0  0  0  0  0  0  0  0  0  0  0  0
   50.0460   39.2670   -1.6740 C   0  0  0  0  0  0  0  0  0  0  0  0
   48.7730   40.0580   -1.3430 C   0  0  1  0  0  0  0  0  0  0  0  0
   48.8710   40.9410   -0.1760 N   0  0  0  0  0  0  0  0  0  0  0  0
   49.8270   40.7380    0.8990 C   0  0  2  0  0  0  0  0  0  0  0  0
   47.1710   41.6040   -2.3390 N   0  0  0  0  0  0  0  0  0  0  0  0
   47.0410   42.2750   -1.0450 C   0  0  0  0  0  0  0  0  0  0  0  0
   48.0410   41.9940   -0.0150 C   0  0  0  0  0  0  0  0  0  0  0  0
   46.4060   42.0720   -3.4800 C   0  0  0  0  0  0  0  0  0  0  0  0
   48.0710   42.7350    0.9340 O   0  0  0  0  0  0  0  0  0  0  0  0
   50.8370   41.9230    1.0870 C   0  0  0  0  0  0  0  0  0  0  0  0
   51.0130   42.5380    2.3160 C   0  0  0  0  0  0  0  0  0  0  0  0
   51.9290   43.5880    2.4170 C   0  0  0  0  0  0  0  0  0  0  0  0
   52.6450   44.0210    1.3460 C   0  0  0  0  0  0  0  0  0  0  0  0
   52.5080   43.4470    0.1030 C   0  0  0  0  0  0  0  0  0  0  0  0
   51.6090   42.4090   -0.0050 C   0  0  0  0  0  0  0  0  0  0  0  0
   52.2230   44.3030    3.5520 O   0  0  0  0  0  0  0  0  0  0  0  0
   53.4170   45.0160    3.1120 C   0  0  0  0  0  0  0  0  0  0  0  0
   53.4680   45.0530    1.6900 O   0  0  0  0  0  0  0  0  0  0  0  0
   47.9700   40.5570   -2.5030 C   0  0  0  0  0  0  0  0  0  0  0  0
   48.1210   39.9400   -3.5700 O   0  0  0  0  0  0  0  0  0  0  0  0
   51.9190   36.6820   -2.0010 H   0  0  0  0  0  0  0  0  0  0  0  0
   53.4800   35.1350   -0.9780 H   0  0  0  0  0  0  0  0  0  0  0  0
   52.1200   35.7680   -0.0820 H   0  0  0  0  0  0  0  0  0  0  0  0
   54.1730   35.2950    1.3340 H   0  0  0  0  0  0  0  0  0  0  0  0
   53.2810   37.1140    2.7640 H   0  0  0  0  0  0  0  0  0  0  0  0
   49.7780   38.3780   -2.2060 H   0  0  0  0  0  0  0  0  0  0  0  0
   50.6850   39.8810   -2.2740 H   0  0  0  0  0  0  0  0  0  0  0  0
   48.1170   39.2910   -0.9880 H   0  0  0  0  0  0  0  0  0  0  0  0
   49.1600   40.6340    1.7290 H   0  0  0  0  0  0  0  0  0  0  0  0
   46.0870   42.0050   -0.6430 H   0  0  0  0  0  0  0  0  0  0  0  0
   47.1790   43.3120   -1.2710 H   0  0  0  0  0  0  0  0  0  0  0  0
   46.6290   41.4650   -4.3320 H   0  0  0  0  0  0  0  0  0  0  0  0
   46.6650   43.0890   -3.6890 H   0  0  0  0  0  0  0  0  0  0  0  0
   45.3610   42.0080   -3.2590 H   0  0  0  0  0  0  0  0  0  0  0  0
   50.4780   42.2260    3.1410 H   0  0  0  0  0  0  0  0  0  0  0  0
   53.0510   43.7790   -0.7090 H   0  0  0  0  0  0  0  0  0  0  0  0
   51.4890   41.9600   -0.9270 H   0  0  0  0  0  0  0  0  0  0  0  0
   54.1220   45.4320    3.7410 H   0  0  0  0  0  0  0  0  0  0  0  0
   52.9930   45.0390    2.1710 H   0  0  0  0  0  0  0  0  0  0  0  0
  2 32  1  0  0  0  0
  2  3  1  0  0  0  0
  3 33  1  0  0  0  0
  3  4  2  0  0  0  0
  4 34  1  0  0  0  0
  5  9  1  0  0  0  0
  5  4  1  0  0  0  0
  6  5  2  0  0  0  0
  7  6  1  0  0  0  0
  7  8  2  0  0  0  0
  8 13  1  0  0  0  0
  8  9  1  0  0  0  0
 10 11  1  0  0  0  0
 10  7  1  0  0  0  0
 11 37  1  1  0  0  0
 11 12  1  0  0  0  0
 12 16  1  0  0  0  0
 12 13  1  0  0  0  0
 13 19  1  0  0  0  0
 13 38  1  1  0  0  0
 14 15  1  0  0  0  0
 15 39  1  0  0  0  0
 15 16  1  0  0  0  0
 16 18  2  0  0  0  0
 17 43  1  0  0  0  0
 17 14  1  0  0  0  0
 19 20  2  0  0  0  0
 20 21  1  0  0  0  0
 20 44  1  0  0  0  0
 21 25  1  0  0  0  0
 22 21  2  0  0  0  0
 24 23  2  0  0  0  0
 24 19  1  0  0  0  0
 26 47  1  0  0  0  0
 27 48  1  0  0  0  0
 28 14  1  0  0  0  0
 28 11  1  0  0  0  0
 29 28  2  0  0  0  0
 30  1  1  0  0  0  0
 31  2  1  0  0  0  0
 35 10  1  0  0  0  0
 36 10  1  0  0  0  0
 40 15  1  0  0  0  0
 41 17  1  0  0  0  0
 42 17  1  0  0  0  0
 45 23  1  0  0  0  0
 46 24  1  0  0  0  0
M  END
>  <Pose>
1

>  <Score>
-2.88

$$$$
