5gs4_ligand_vina_out.pdbqt
 OpenBabel09072312113D

 32 36  0  0  1  0  0  0  0  0999 V2000
   -4.1860    3.0610    4.0690 O   0  0  0  0  0  0  0  0  0  0  0  0
   -5.1300    2.2150    3.5400 C   0  0  0  0  0  0  0  0  0  0  0  0
   -7.1300    0.4810    2.4950 C   0  0  0  0  0  0  0  0  0  0  0  0
   -5.8600    0.5940    1.9000 C   0  0  0  0  0  3  0  0  0  0  0  0
   -7.3400    1.2480    3.5940 C   0  0  0  0  0  3  0  0  0  0  0  0
   -4.8960    1.4310    2.4050 C   0  0  0  0  0  3  0  0  0  0  0  0
   -6.3750    2.0900    4.1060 C   0  0  0  0  0  3  0  0  0  0  0  0
   -8.0420   -0.4440    1.8320 C   0  0  2  0  0  3  0  0  0  0  0  0
   -9.6690    4.0230    0.0210 C   0  0  0  0  0  0  0  0  0  0  0  0
   -8.8360    3.4630   -0.9180 C   0  0  0  0  0  3  0  0  0  0  0  0
  -10.0080    3.2480    1.1240 C   0  0  0  0  0  3  0  0  0  0  0  0
   -8.3690    2.1810   -0.7520 C   0  0  0  0  0  3  0  0  0  0  0  0
   -9.5510    1.9810    1.2960 C   0  0  0  0  0  0  0  0  0  0  0  0
   -8.7180    1.4120    0.3640 C   0  0  0  0  0  0  0  0  0  0  0  0
  -10.0480    1.0470    2.7370 S   0  0  0  0  0  0  0  0  0  0  0  0
   -8.2160    0.1010    0.4960 O   0  0  0  0  0  0  0  0  0  0  0  0
   -9.3860   -0.6460    2.3820 C   0  0  2  0  0  3  0  0  0  0  0  0
  -10.1420    5.3210   -0.1440 O   0  0  0  0  0  0  0  0  0  0  0  0
  -10.4840    5.8270    0.6580 H   0  0  0  0  0  0  0  0  0  0  0  0
   -9.5780   -1.5840    3.4700 C   0  0  0  0  0  0  0  0  0  0  0  0
  -10.6700   -2.3060    3.8920 C   0  0  0  0  0  3  0  0  0  0  0  0
   -8.5800   -1.8980    4.3020 O   0  0  0  0  0  0  0  0  0  0  0  0
  -10.2630   -3.0370    4.9870 C   0  0  0  0  0  3  0  0  0  0  0  0
   -8.9390   -2.7420    5.1990 C   0  0  0  0  0  3  0  0  0  0  0  0
   -4.0250    3.1560    5.4490 C   0  0  0  0  0  2  0  0  0  0  0  0
   -2.7610    2.4840    5.9370 C   0  0  0  0  0  2  0  0  0  0  0  0
   -2.9850    1.4940    6.9340 N   0  0  0  0  0  0  0  0  0  0  0  0
   -4.2690    0.8840    6.9580 C   0  0  0  0  0  2  0  0  0  0  0  0
   -1.8700    0.6550    7.2090 C   0  0  0  0  0  2  0  0  0  0  0  0
   -4.3680   -0.3620    6.1110 C   0  0  0  0  0  2  0  0  0  0  0  0
   -2.1730   -0.8210    7.0580 C   0  0  0  0  0  2  0  0  0  0  0  0
   -3.0670   -1.0480    5.8640 C   0  0  0  0  0  2  0  0  0  0  0  0
  1 25  1  0  0  0  0
  2  1  1  0  0  0  0
  2  7  1  0  0  0  0
  3  5  1  0  0  0  0
  4  6  1  0  0  0  0
  4  3  2  0  0  0  0
  5  7  2  0  0  0  0
  6  2  2  0  0  0  0
  8 17  1  0  0  0  0
  8  3  1  1  0  0  0
  9 11  1  0  0  0  0
 10 12  1  0  0  0  0
 10  9  2  0  0  0  0
 11 13  2  0  0  0  0
 12 14  2  0  0  0  0
 13 15  1  0  0  0  0
 14 16  1  0  0  0  0
 14 13  1  0  0  0  0
 16  8  1  0  0  0  0
 17 15  1  0  0  0  0
 17 20  1  1  0  0  0
 18  9  1  0  0  0  0
 18 19  1  0  0  0  0
 20 21  2  0  0  0  0
 20 22  1  0  0  0  0
 21 23  1  0  0  0  0
 22 24  1  0  0  0  0
 23 24  2  0  0  0  0
 25 26  1  0  0  0  0
 26 27  1  0  0  0  0
 27 28  1  0  0  0  0
 27 29  1  0  0  0  0
 30 28  1  0  0  0  0
 31 29  1  0  0  0  0
 32 30  1  0  0  0  0
 32 31  1  0  0  0  0
M  END
>  <Pose>
1

>  <Score>
-7.189

$$$$
5gs4_ligand_vina_out.pdbqt
 OpenBabel09072312113D

 32 36  0  0  1  0  0  0  0  0999 V2000
   -3.8890    3.8290    5.2580 O   0  0  0  0  0  0  0  0  0  0  0  0
   -4.4890    3.0270    4.3180 C   0  0  0  0  0  0  0  0  0  0  0  0
   -5.7940    1.3830    2.3960 C   0  0  0  0  0  0  0  0  0  0  0  0
   -4.3910    1.4740    2.4660 C   0  0  0  0  0  3  0  0  0  0  0  0
   -6.4810    2.1250    3.2990 C   0  0  0  0  0  3  0  0  0  0  0  0
   -3.7630    2.2680    3.3940 C   0  0  0  0  0  3  0  0  0  0  0  0
   -5.8560    2.9230    4.2330 C   0  0  0  0  0  3  0  0  0  0  0  0
   -6.3030    0.5040    1.3490 C   0  0  2  0  0  3  0  0  0  0  0  0
   -5.1660    4.6790   -1.3260 C   0  0  0  0  0  0  0  0  0  0  0  0
   -4.1220    3.7940   -1.4570 C   0  0  0  0  0  3  0  0  0  0  0  0
   -6.3090    4.2320   -0.6760 C   0  0  0  0  0  3  0  0  0  0  0  0
   -4.2280    2.5190   -0.9550 C   0  0  0  0  0  3  0  0  0  0  0  0
   -6.4230    2.9740   -0.1770 C   0  0  0  0  0  0  0  0  0  0  0  0
   -5.3860    2.0820   -0.3020 C   0  0  0  0  0  0  0  0  0  0  0  0
   -7.9370    2.4750    0.6340 S   0  0  0  0  0  0  0  0  0  0  0  0
   -5.4540    0.7660    0.1990 O   0  0  0  0  0  0  0  0  0  0  0  0
   -7.6870    0.6570    0.8930 C   0  0  2  0  0  3  0  0  0  0  0  0
   -5.0600    5.9710   -1.8330 O   0  0  0  0  0  0  0  0  0  0  0  0
   -4.3650    6.5930   -1.4530 H   0  0  0  0  0  0  0  0  0  0  0  0
   -8.7590    0.0260    1.6380 C   0  0  0  0  0  0  0  0  0  0  0  0
   -8.7620   -0.8360    2.7090 C   0  0  0  0  0  3  0  0  0  0  0  0
  -10.0410    0.2390    1.3270 O   0  0  0  0  0  0  0  0  0  0  0  0
  -10.0820   -1.1070    2.9970 C   0  0  0  0  0  3  0  0  0  0  0  0
  -10.8430   -0.4030    2.0960 C   0  0  0  0  0  3  0  0  0  0  0  0
   -3.7370    3.3800    6.5680 C   0  0  0  0  0  2  0  0  0  0  0  0
   -2.5460    2.4620    6.7350 C   0  0  0  0  0  2  0  0  0  0  0  0
   -2.8550    1.2300    7.3760 N   0  0  0  0  0  0  0  0  0  0  0  0
   -4.2060    0.7930    7.3120 C   0  0  0  0  0  2  0  0  0  0  0  0
   -1.8500    0.2300    7.2720 C   0  0  0  0  0  2  0  0  0  0  0  0
   -4.5060   -0.0860    6.1220 C   0  0  0  0  0  2  0  0  0  0  0  0
   -2.3520   -1.0710    6.6820 C   0  0  0  0  0  2  0  0  0  0  0  0
   -3.3200   -0.7920    5.5580 C   0  0  0  0  0  2  0  0  0  0  0  0
  1 25  1  0  0  0  0
  2  1  1  0  0  0  0
  3  4  2  0  0  0  0
  3  5  1  0  0  0  0
  4  6  1  0  0  0  0
  5  7  2  0  0  0  0
  6  2  2  0  0  0  0
  7  2  1  0  0  0  0
  8  3  1  1  0  0  0
  9 11  1  0  0  0  0
 10  9  2  0  0  0  0
 10 12  1  0  0  0  0
 11 13  2  0  0  0  0
 12 14  2  0  0  0  0
 13 15  1  0  0  0  0
 14 13  1  0  0  0  0
 14 16  1  0  0  0  0
 15 17  1  0  0  0  0
 16  8  1  0  0  0  0
 17  8  1  0  0  0  0
 17 20  1  1  0  0  0
 18 19  1  0  0  0  0
 18  9  1  0  0  0  0
 20 21  2  0  0  0  0
 21 23  1  0  0  0  0
 22 20  1  0  0  0  0
 22 24  1  0  0  0  0
 24 23  2  0  0  0  0
 25 26  1  0  0  0  0
 26 27  1  0  0  0  0
 28 27  1  0  0  0  0
 29 27  1  0  0  0  0
 30 28  1  0  0  0  0
 31 29  1  0  0  0  0
 32 30  1  0  0  0  0
 32 31  1  0  0  0  0
M  END
>  <Pose>
2

>  <Score>
-6.824

$$$$
5gs4_ligand_vina_out.pdbqt
 OpenBabel09072312113D

 32 36  0  0  1  0  0  0  0  0999 V2000
   -4.6070   -0.3960    6.1720 O   0  0  0  0  0  0  0  0  0  0  0  0
   -4.9500    0.3310    5.0580 C   0  0  0  0  0  0  0  0  0  0  0  0
   -5.6360    1.7890    2.7120 C   0  0  0  0  0  0  0  0  0  0  0  0
   -5.8980    2.2890    4.0010 C   0  0  0  0  0  3  0  0  0  0  0  0
   -5.0390    0.5720    2.6600 C   0  0  0  0  0  3  0  0  0  0  0  0
   -5.5670    1.5850    5.1320 C   0  0  0  0  0  3  0  0  0  0  0  0
   -4.7040   -0.1390    3.7920 C   0  0  0  0  0  3  0  0  0  0  0  0
   -6.0570    2.6540    1.6160 C   0  0  2  0  0  3  0  0  0  0  0  0
  -10.2490   -0.1350    2.3450 C   0  0  0  0  0  0  0  0  0  0  0  0
  -10.4150    1.0600    3.0040 C   0  0  0  0  0  3  0  0  0  0  0  0
   -9.1280   -0.2720    1.5370 C   0  0  0  0  0  3  0  0  0  0  0  0
   -9.4930    2.0680    2.8540 C   0  0  0  0  0  3  0  0  0  0  0  0
   -8.2120    0.7180    1.3810 C   0  0  0  0  0  0  0  0  0  0  0  0
   -8.3670    1.9150    2.0360 C   0  0  0  0  0  0  0  0  0  0  0  0
   -6.8030    0.4630    0.3100 S   0  0  0  0  0  0  0  0  0  0  0  0
   -7.4450    2.9740    1.9090 O   0  0  0  0  0  0  0  0  0  0  0  0
   -6.0240    2.1430    0.2440 C   0  0  2  0  0  3  0  0  0  0  0  0
  -11.1820   -1.1570    2.4980 O   0  0  0  0  0  0  0  0  0  0  0  0
  -12.1050   -0.9350    2.8350 H   0  0  0  0  0  0  0  0  0  0  0  0
   -4.7810    2.1770   -0.5010 C   0  0  0  0  0  0  0  0  0  0  0  0
   -3.8730    1.1990   -0.8360 C   0  0  0  0  0  3  0  0  0  0  0  0
   -4.3110    3.3160   -1.0170 O   0  0  0  0  0  0  0  0  0  0  0  0
   -2.8740    1.8170   -1.5570 C   0  0  0  0  0  3  0  0  0  0  0  0
   -3.2010    3.1480   -1.6400 C   0  0  0  0  0  3  0  0  0  0  0  0
   -3.5150   -0.0150    6.9480 C   0  0  0  0  0  2  0  0  0  0  0  0
   -2.1990   -0.5020    6.3820 C   0  0  0  0  0  2  0  0  0  0  0  0
   -1.1960    0.5060    6.3120 N   0  0  0  0  0  0  0  0  0  0  0  0
   -0.8860    1.0160    5.0220 C   0  0  0  0  0  2  0  0  0  0  0  0
   -1.2050    1.4370    7.3860 C   0  0  0  0  0  2  0  0  0  0  0  0
   -1.7110    2.2170    4.6270 C   0  0  0  0  0  2  0  0  0  0  0  0
   -1.3100    2.8780    6.9350 C   0  0  0  0  0  2  0  0  0  0  0  0
   -2.2680    2.9910    5.7740 C   0  0  0  0  0  2  0  0  0  0  0  0
  1 25  1  0  0  0  0
  2  6  1  0  0  0  0
  2  1  1  0  0  0  0
  3  4  1  0  0  0  0
  4  6  2  0  0  0  0
  5  3  2  0  0  0  0
  5  7  1  0  0  0  0
  7  2  2  0  0  0  0
  8 16  1  0  0  0  0
  8  3  1  1  0  0  0
  9 18  1  0  0  0  0
  9 10  1  0  0  0  0
 11  9  2  0  0  0  0
 12 10  2  0  0  0  0
 13 11  1  0  0  0  0
 13 14  2  0  0  0  0
 14 12  1  0  0  0  0
 15 13  1  0  0  0  0
 16 14  1  0  0  0  0
 17 20  1  1  0  0  0
 17 15  1  0  0  0  0
 17  8  1  0  0  0  0
 18 19  1  0  0  0  0
 21 20  2  0  0  0  0
 22 20  1  0  0  0  0
 23 21  1  0  0  0  0
 24 23  2  0  0  0  0
 24 22  1  0  0  0  0
 26 25  1  0  0  0  0
 27 26  1  0  0  0  0
 27 29  1  0  0  0  0
 28 27  1  0  0  0  0
 30 28  1  0  0  0  0
 30 32  1  0  0  0  0
 31 29  1  0  0  0  0
 32 31  1  0  0  0  0
M  END
>  <Pose>
3

>  <Score>
-6.532

$$$$
5gs4_ligand_vina_out.pdbqt
 OpenBabel09072312113D

 32 36  0  0  1  0  0  0  0  0999 V2000
   -1.0130    3.2760    1.3590 O   0  0  0  0  0  0  0  0  0  0  0  0
   -2.1810    2.9470    2.0020 C   0  0  0  0  0  0  0  0  0  0  0  0
   -4.6070    2.2110    3.2950 C   0  0  0  0  0  0  0  0  0  0  0  0
   -3.8760    3.3490    3.6800 C   0  0  0  0  0  3  0  0  0  0  0  0
   -4.0840    1.4890    2.2720 C   0  0  0  0  0  3  0  0  0  0  0  0
   -2.7050    3.7040    3.0560 C   0  0  0  0  0  3  0  0  0  0  0  0
   -2.9090    1.8410    1.6420 C   0  0  0  0  0  3  0  0  0  0  0  0
   -5.8230    1.9680    4.0630 C   0  0  2  0  0  3  0  0  0  0  0  0
   -2.3730   -0.5240    6.8510 C   0  0  0  0  0  0  0  0  0  0  0  0
   -2.5710    0.7100    7.4240 C   0  0  0  0  0  3  0  0  0  0  0  0
   -3.2080   -0.8850    5.8000 C   0  0  0  0  0  3  0  0  0  0  0  0
   -3.5640    1.5390    6.9590 C   0  0  0  0  0  3  0  0  0  0  0  0
   -4.1910   -0.0730    5.3340 C   0  0  0  0  0  0  0  0  0  0  0  0
   -4.3970    1.1620    5.9000 C   0  0  0  0  0  0  0  0  0  0  0  0
   -5.2310   -0.6220    3.9870 S   0  0  0  0  0  0  0  0  0  0  0  0
   -5.4030    2.0420    5.4530 O   0  0  0  0  0  0  0  0  0  0  0  0
   -6.5310    0.6950    3.9040 C   0  0  2  0  0  3  0  0  0  0  0  0
   -1.3680   -1.3640    7.3200 O   0  0  0  0  0  0  0  0  0  0  0  0
   -0.4320   -1.0030    7.4230 H   0  0  0  0  0  0  0  0  0  0  0  0
   -7.4580    0.5260    2.8020 C   0  0  0  0  0  0  0  0  0  0  0  0
   -7.9720   -0.5890    2.1840 C   0  0  0  0  0  3  0  0  0  0  0  0
   -7.9920    1.5790    2.1760 O   0  0  0  0  0  0  0  0  0  0  0  0
   -8.8120   -0.1390    1.1890 C   0  0  0  0  0  3  0  0  0  0  0  0
   -8.7870    1.2330    1.2300 C   0  0  0  0  0  3  0  0  0  0  0  0
    0.0320    2.3570    1.2890 C   0  0  0  0  0  2  0  0  0  0  0  0
    1.2970    2.8600    1.9510 C   0  0  0  0  0  2  0  0  0  0  0  0
    1.6210    2.1830    3.1590 N   0  0  0  0  0  0  0  0  0  0  0  0
    2.2050    2.9610    4.1950 C   0  0  0  0  0  2  0  0  0  0  0  0
    0.6920    1.1810    3.5540 C   0  0  0  0  0  2  0  0  0  0  0  0
    1.1990    3.5660    5.1440 C   0  0  0  0  0  2  0  0  0  0  0  0
    0.1460    1.3800    4.9510 C   0  0  0  0  0  2  0  0  0  0  0  0
   -0.1060    2.8460    5.2070 C   0  0  0  0  0  2  0  0  0  0  0  0
  1  2  1  0  0  0  0
  2  6  1  0  0  0  0
  3  4  1  0  0  0  0
  5  3  2  0  0  0  0
  6  4  2  0  0  0  0
  7  2  2  0  0  0  0
  7  5  1  0  0  0  0
  8  3  1  6  0  0  0
  8 16  1  0  0  0  0
  9 18  1  0  0  0  0
  9 10  1  0  0  0  0
 11  9  2  0  0  0  0
 12 10  2  0  0  0  0
 13 11  1  0  0  0  0
 13 14  2  0  0  0  0
 14 12  1  0  0  0  0
 15 13  1  0  0  0  0
 16 14  1  0  0  0  0
 17 20  1  6  0  0  0
 17 15  1  0  0  0  0
 17  8  1  0  0  0  0
 18 19  1  0  0  0  0
 21 20  2  0  0  0  0
 22 20  1  0  0  0  0
 23 24  2  0  0  0  0
 23 21  1  0  0  0  0
 24 22  1  0  0  0  0
 25  1  1  0  0  0  0
 25 26  1  0  0  0  0
 26 27  1  0  0  0  0
 27 29  1  0  0  0  0
 27 28  1  0  0  0  0
 28 30  1  0  0  0  0
 29 31  1  0  0  0  0
 30 32  1  0  0  0  0
 31 32  1  0  0  0  0
M  END
>  <Pose>
4

>  <Score>
-6.505

$$$$
5gs4_ligand_vina_out.pdbqt
 OpenBabel09072312113D

 32 36  0  0  1  0  0  0  0  0999 V2000
   -1.2530    2.4150    0.6260 O   0  0  0  0  0  0  0  0  0  0  0  0
   -2.3360    2.2870    1.4610 C   0  0  0  0  0  0  0  0  0  0  0  0
   -4.5440    2.0530    3.2420 C   0  0  0  0  0  0  0  0  0  0  0  0
   -4.5910    1.5490    1.9300 C   0  0  0  0  0  3  0  0  0  0  0  0
   -3.3830    2.6550    3.6030 C   0  0  0  0  0  3  0  0  0  0  0  0
   -3.5260    1.6630    1.0710 C   0  0  0  0  0  3  0  0  0  0  0  0
   -2.3090    2.7720    2.7460 C   0  0  0  0  0  3  0  0  0  0  0  0
   -5.7600    1.8610    4.0220 C   0  0  2  0  0  3  0  0  0  0  0  0
   -2.4100   -0.8510    6.7240 C   0  0  0  0  0  0  0  0  0  0  0  0
   -2.5370    0.3810    7.3200 C   0  0  0  0  0  3  0  0  0  0  0  0
   -3.2750   -1.1510    5.6790 C   0  0  0  0  0  3  0  0  0  0  0  0
   -3.4910    1.2680    6.8810 C   0  0  0  0  0  3  0  0  0  0  0  0
   -4.2210   -0.2830    5.2390 C   0  0  0  0  0  0  0  0  0  0  0  0
   -4.3550    0.9520    5.8270 C   0  0  0  0  0  0  0  0  0  0  0  0
   -5.3040   -0.7550    3.8970 S   0  0  0  0  0  0  0  0  0  0  0  0
   -5.3210    1.8890    5.4080 O   0  0  0  0  0  0  0  0  0  0  0  0
   -6.5360    0.6290    3.8530 C   0  0  2  0  0  3  0  0  0  0  0  0
   -1.4430   -1.7490    7.1660 O   0  0  0  0  0  0  0  0  0  0  0  0
   -0.4940   -1.6520    6.8400 H   0  0  0  0  0  0  0  0  0  0  0  0
   -7.4830    0.5260    2.7610 C   0  0  0  0  0  0  0  0  0  0  0  0
   -7.9360   -0.5420    2.0220 C   0  0  0  0  0  3  0  0  0  0  0  0
   -8.1110    1.6050    2.2820 O   0  0  0  0  0  0  0  0  0  0  0  0
   -8.8390   -0.0380    1.1100 C   0  0  0  0  0  3  0  0  0  0  0  0
   -8.9100    1.3170    1.3190 C   0  0  0  0  0  3  0  0  0  0  0  0
   -1.1650    1.6400   -0.5290 C   0  0  0  0  0  2  0  0  0  0  0  0
   -0.0730    2.1120   -1.4650 C   0  0  0  0  0  2  0  0  0  0  0  0
    1.1580    2.4020   -0.8120 N   0  0  0  0  0  0  0  0  0  0  0  0
    1.8770    1.2990   -0.2760 C   0  0  0  0  0  2  0  0  0  0  0  0
    1.9240    3.4400   -1.4090 C   0  0  0  0  0  2  0  0  0  0  0  0
    2.8660    0.6900   -1.2410 C   0  0  0  0  0  2  0  0  0  0  0  0
    3.3330    3.0210   -1.7690 C   0  0  0  0  0  2  0  0  0  0  0  0
    3.3330    1.6140   -2.3150 C   0  0  0  0  0  2  0  0  0  0  0  0
  1  2  1  0  0  0  0
  2  7  1  0  0  0  0
  3  5  1  0  0  0  0
  4  3  2  0  0  0  0
  6  2  2  0  0  0  0
  6  4  1  0  0  0  0
  7  5  2  0  0  0  0
  8  3  1  6  0  0  0
  8 16  1  0  0  0  0
  9 18  1  0  0  0  0
  9 10  1  0  0  0  0
 11  9  2  0  0  0  0
 12 10  2  0  0  0  0
 13 11  1  0  0  0  0
 13 14  2  0  0  0  0
 14 12  1  0  0  0  0
 15 13  1  0  0  0  0
 16 14  1  0  0  0  0
 17 20  1  6  0  0  0
 17 15  1  0  0  0  0
 17  8  1  0  0  0  0
 19 18  1  0  0  0  0
 21 20  2  0  0  0  0
 22 20  1  0  0  0  0
 23 24  2  0  0  0  0
 23 21  1  0  0  0  0
 24 22  1  0  0  0  0
 25  1  1  0  0  0  0
 26 27  1  0  0  0  0
 26 25  1  0  0  0  0
 27 28  1  0  0  0  0
 29 27  1  0  0  0  0
 30 28  1  0  0  0  0
 31 29  1  0  0  0  0
 32 31  1  0  0  0  0
 32 30  1  0  0  0  0
M  END
>  <Pose>
5

>  <Score>
-6.319

$$$$
5gs4_ligand_vina_out.pdbqt
 OpenBabel09072312113D

 32 36  0  0  1  0  0  0  0  0999 V2000
   -1.3260    2.2940    0.5570 O   0  0  0  0  0  0  0  0  0  0  0  0
   -2.4030    2.2240    1.4060 C   0  0  0  0  0  0  0  0  0  0  0  0
   -4.6000    2.1150    3.2120 C   0  0  0  0  0  0  0  0  0  0  0  0
   -4.6550    1.5210    1.9380 C   0  0  0  0  0  3  0  0  0  0  0  0
   -3.4370    2.7400    3.5240 C   0  0  0  0  0  3  0  0  0  0  0  0
   -3.5950    1.5750    1.0670 C   0  0  0  0  0  3  0  0  0  0  0  0
   -2.3690    2.7970    2.6540 C   0  0  0  0  0  3  0  0  0  0  0  0
   -5.8120    1.9770    4.0110 C   0  0  2  0  0  3  0  0  0  0  0  0
   -2.4340   -0.5060    6.8940 C   0  0  0  0  0  0  0  0  0  0  0  0
   -2.5640    0.7670    7.3940 C   0  0  0  0  0  3  0  0  0  0  0  0
   -3.3030   -0.8890    5.8790 C   0  0  0  0  0  3  0  0  0  0  0  0
   -3.5260    1.6130    6.8950 C   0  0  0  0  0  3  0  0  0  0  0  0
   -4.2560   -0.0610    5.3800 C   0  0  0  0  0  0  0  0  0  0  0  0
   -4.3930    1.2140    5.8720 C   0  0  0  0  0  0  0  0  0  0  0  0
   -5.3430   -0.6380    4.0830 S   0  0  0  0  0  0  0  0  0  0  0  0
   -5.3650    2.1130    5.3880 O   0  0  0  0  0  0  0  0  0  0  0  0
   -6.5820    0.7320    3.9400 C   0  0  2  0  0  3  0  0  0  0  0  0
   -1.4610   -1.3640    7.3970 O   0  0  0  0  0  0  0  0  0  0  0  0
   -0.5060   -1.0460    7.4550 H   0  0  0  0  0  0  0  0  0  0  0  0
   -7.5350    0.5420    2.8640 C   0  0  0  0  0  0  0  0  0  0  0  0
   -7.9850   -0.5810    2.2110 C   0  0  0  0  0  3  0  0  0  0  0  0
   -8.1700    1.5780    2.3080 O   0  0  0  0  0  0  0  0  0  0  0  0
   -8.8950   -0.1520    1.2680 C   0  0  0  0  0  3  0  0  0  0  0  0
   -8.9720    1.2140    1.3750 C   0  0  0  0  0  3  0  0  0  0  0  0
   -1.2780    1.4920   -0.5810 C   0  0  0  0  0  2  0  0  0  0  0  0
   -1.0940    2.2920   -1.8520 C   0  0  0  0  0  2  0  0  0  0  0  0
   -2.1930    2.2040   -2.7500 N   0  0  0  0  0  0  0  0  0  0  0  0
   -3.3920    2.8650   -2.3680 C   0  0  0  0  0  2  0  0  0  0  0  0
   -1.8470    2.2470   -4.1290 C   0  0  0  0  0  2  0  0  0  0  0  0
   -3.4830    4.2910   -2.8550 C   0  0  0  0  0  2  0  0  0  0  0  0
   -2.5610    3.3380   -4.8970 C   0  0  0  0  0  2  0  0  0  0  0  0
   -2.6520    4.5900   -4.0570 C   0  0  0  0  0  2  0  0  0  0  0  0
  1  2  1  0  0  0  0
  2  7  1  0  0  0  0
  3  5  1  0  0  0  0
  4  3  2  0  0  0  0
  6  2  2  0  0  0  0
  6  4  1  0  0  0  0
  7  5  2  0  0  0  0
  8  3  1  6  0  0  0
  8 16  1  0  0  0  0
  9 10  1  0  0  0  0
  9 18  1  0  0  0  0
 11  9  2  0  0  0  0
 12 10  2  0  0  0  0
 13 14  2  0  0  0  0
 13 11  1  0  0  0  0
 14 12  1  0  0  0  0
 15 13  1  0  0  0  0
 16 14  1  0  0  0  0
 17 20  1  6  0  0  0
 17  8  1  0  0  0  0
 17 15  1  0  0  0  0
 18 19  1  0  0  0  0
 21 20  2  0  0  0  0
 22 20  1  0  0  0  0
 23 24  2  0  0  0  0
 23 21  1  0  0  0  0
 24 22  1  0  0  0  0
 25  1  1  0  0  0  0
 26 25  1  0  0  0  0
 27 28  1  0  0  0  0
 27 26  1  0  0  0  0
 29 27  1  0  0  0  0
 30 28  1  0  0  0  0
 31 29  1  0  0  0  0
 31 32  1  0  0  0  0
 32 30  1  0  0  0  0
M  END
>  <Pose>
6

>  <Score>
-6.014

$$$$
5gs4_ligand_vina_out.pdbqt
 OpenBabel09072312113D

 32 36  0  0  1  0  0  0  0  0999 V2000
   -3.8450   -0.8190    5.5960 O   0  0  0  0  0  0  0  0  0  0  0  0
   -4.8080   -0.3730    4.7240 C   0  0  0  0  0  0  0  0  0  0  0  0
   -6.8100    0.6090    2.9550 C   0  0  0  0  0  0  0  0  0  0  0  0
   -6.2150   -0.6540    2.7760 C   0  0  0  0  0  3  0  0  0  0  0  0
   -6.3700    1.3250    4.0190 C   0  0  0  0  0  3  0  0  0  0  0  0
   -5.2490   -1.1260    3.6300 C   0  0  0  0  0  3  0  0  0  0  0  0
   -5.4010    0.8550    4.8810 C   0  0  0  0  0  3  0  0  0  0  0  0
   -7.8110    0.9660    1.9560 C   0  0  2  0  0  3  0  0  0  0  0  0
   -3.5850    2.8540   -0.1570 C   0  0  0  0  0  0  0  0  0  0  0  0
   -3.8350    1.6290   -0.7280 C   0  0  0  0  0  3  0  0  0  0  0  0
   -4.5500    3.3710    0.7000 C   0  0  0  0  0  3  0  0  0  0  0  0
   -5.0010    0.9580   -0.4480 C   0  0  0  0  0  3  0  0  0  0  0  0
   -5.7050    2.7160    0.9830 C   0  0  0  0  0  0  0  0  0  0  0  0
   -5.9630    1.4910    0.4180 C   0  0  0  0  0  0  0  0  0  0  0  0
   -6.9000    3.4600    2.0850 S   0  0  0  0  0  0  0  0  0  0  0  0
   -7.1460    0.7700    0.6780 O   0  0  0  0  0  0  0  0  0  0  0  0
   -8.3580    2.3260    1.9410 C   0  0  2  0  0  3  0  0  0  0  0  0
   -2.4040    3.5330   -0.4380 O   0  0  0  0  0  0  0  0  0  0  0  0
   -2.3780    4.5360   -0.3430 H   0  0  0  0  0  0  0  0  0  0  0  0
   -9.4480    2.6670    2.8350 C   0  0  0  0  0  0  0  0  0  0  0  0
   -9.8310    3.8500    3.4220 C   0  0  0  0  0  3  0  0  0  0  0  0
  -10.3230    1.7450    3.2460 O   0  0  0  0  0  0  0  0  0  0  0  0
  -10.9490    3.5720    4.1780 C   0  0  0  0  0  3  0  0  0  0  0  0
  -11.2140    2.2330    4.0300 C   0  0  0  0  0  3  0  0  0  0  0  0
   -2.5480   -0.3160    5.5220 C   0  0  0  0  0  2  0  0  0  0  0  0
   -2.1150    0.3700    6.8000 C   0  0  0  0  0  2  0  0  0  0  0  0
   -1.4390    1.6040    6.5880 N   0  0  0  0  0  0  0  0  0  0  0  0
   -1.7980    2.3430    5.4290 C   0  0  0  0  0  2  0  0  0  0  0  0
   -1.1680    2.3500    7.7680 C   0  0  0  0  0  2  0  0  0  0  0  0
   -2.9170    3.3290    5.6570 C   0  0  0  0  0  2  0  0  0  0  0  0
   -1.7160    3.7610    7.7300 C   0  0  0  0  0  2  0  0  0  0  0  0
   -3.0750    3.7720    7.0730 C   0  0  0  0  0  2  0  0  0  0  0  0
  2  7  1  0  0  0  0
  2  1  1  0  0  0  0
  3  5  1  0  0  0  0
  4  3  2  0  0  0  0
  4  6  1  0  0  0  0
  5  7  2  0  0  0  0
  6  2  2  0  0  0  0
  8  3  1  1  0  0  0
  9 11  1  0  0  0  0
 10 12  1  0  0  0  0
 10  9  2  0  0  0  0
 11 13  2  0  0  0  0
 12 14  2  0  0  0  0
 13 15  1  0  0  0  0
 14 16  1  0  0  0  0
 14 13  1  0  0  0  0
 16  8  1  0  0  0  0
 17  8  1  0  0  0  0
 17 15  1  0  0  0  0
 17 20  1  1  0  0  0
 18 19  1  0  0  0  0
 18  9  1  0  0  0  0
 20 22  1  0  0  0  0
 20 21  2  0  0  0  0
 21 23  1  0  0  0  0
 22 24  1  0  0  0  0
 24 23  2  0  0  0  0
 25  1  1  0  0  0  0
 25 26  1  0  0  0  0
 27 26  1  0  0  0  0
 27 29  1  0  0  0  0
 28 30  1  0  0  0  0
 28 27  1  0  0  0  0
 30 32  1  0  0  0  0
 31 29  1  0  0  0  0
 32 31  1  0  0  0  0
M  END
>  <Pose>
7

>  <Score>
-5.971

$$$$
5gs4_ligand_vina_out.pdbqt
 OpenBabel09072312113D

 32 36  0  0  1  0  0  0  0  0999 V2000
   -3.5120    3.3840   -1.0110 O   0  0  0  0  0  0  0  0  0  0  0  0
   -4.0350    2.4970   -0.1020 C   0  0  0  0  0  0  0  0  0  0  0  0
   -5.1630    0.6390    1.7360 C   0  0  0  0  0  0  0  0  0  0  0  0
   -4.0910    1.4780    2.0910 C   0  0  0  0  0  3  0  0  0  0  0  0
   -5.6220    0.7720    0.4660 C   0  0  0  0  0  3  0  0  0  0  0  0
   -3.5470    2.3740    1.2040 C   0  0  0  0  0  3  0  0  0  0  0  0
   -5.0810    1.6700   -0.4290 C   0  0  0  0  0  3  0  0  0  0  0  0
   -5.6190   -0.2610    2.7880 C   0  0  2  0  0  3  0  0  0  0  0  0
   -9.9170    2.2250    1.6800 C   0  0  0  0  0  0  0  0  0  0  0  0
   -9.9350    1.0260    1.0090 C   0  0  0  0  0  3  0  0  0  0  0  0
   -8.8860    2.4370    2.5880 C   0  0  0  0  0  3  0  0  0  0  0  0
   -8.9600    0.0850    1.2430 C   0  0  0  0  0  3  0  0  0  0  0  0
   -7.9190    1.5150    2.8260 C   0  0  0  0  0  0  0  0  0  0  0  0
   -7.9280    0.3130    2.1600 C   0  0  0  0  0  0  0  0  0  0  0  0
   -6.6360    1.8620    4.0220 S   0  0  0  0  0  0  0  0  0  0  0  0
   -6.9480   -0.6780    2.3710 O   0  0  0  0  0  0  0  0  0  0  0  0
   -5.7480    0.2420    4.1590 C   0  0  2  0  0  3  0  0  0  0  0  0
  -10.9020    3.1780    1.4430 O   0  0  0  0  0  0  0  0  0  0  0  0
  -11.1080    3.4500    0.4940 H   0  0  0  0  0  0  0  0  0  0  0  0
   -4.5780    0.2930    5.0140 C   0  0  0  0  0  0  0  0  0  0  0  0
   -3.5730   -0.6110    5.2670 C   0  0  0  0  0  3  0  0  0  0  0  0
   -4.3050    1.3720    5.7530 O   0  0  0  0  0  0  0  0  0  0  0  0
   -2.7230   -0.0150    6.1730 C   0  0  0  0  0  3  0  0  0  0  0  0
   -3.2310    1.2320    6.4430 C   0  0  0  0  0  3  0  0  0  0  0  0
   -2.2040    3.8430   -0.8680 C   0  0  0  0  0  2  0  0  0  0  0  0
   -1.2100    3.0310   -1.6700 C   0  0  0  0  0  2  0  0  0  0  0  0
    0.1050    3.0360   -1.1280 N   0  0  0  0  0  0  0  0  0  0  0  0
    0.2200    2.9120    0.2840 C   0  0  0  0  0  2  0  0  0  0  0  0
    1.0810    2.3630   -1.9130 C   0  0  0  0  0  2  0  0  0  0  0  0
    0.3400    1.4860    0.7620 C   0  0  0  0  0  2  0  0  0  0  0  0
    1.8220    1.2800   -1.1590 C   0  0  0  0  0  2  0  0  0  0  0  0
    0.8700    0.5330   -0.2560 C   0  0  0  0  0  2  0  0  0  0  0  0
  1 25  1  0  0  0  0
  1  2  1  0  0  0  0
  2  6  1  0  0  0  0
  3  4  1  0  0  0  0
  5  3  2  0  0  0  0
  6  4  2  0  0  0  0
  7  2  2  0  0  0  0
  7  5  1  0  0  0  0
  8  3  1  6  0  0  0
  8 17  1  0  0  0  0
  9 11  1  0  0  0  0
 10 12  1  0  0  0  0
 10  9  2  0  0  0  0
 11 13  2  0  0  0  0
 12 14  2  0  0  0  0
 13 15  1  0  0  0  0
 14 16  1  0  0  0  0
 14 13  1  0  0  0  0
 15 17  1  0  0  0  0
 16  8  1  0  0  0  0
 17 20  1  6  0  0  0
 18  9  1  0  0  0  0
 19 18  1  0  0  0  0
 20 21  2  0  0  0  0
 20 22  1  0  0  0  0
 21 23  1  0  0  0  0
 22 24  1  0  0  0  0
 23 24  2  0  0  0  0
 26 27  1  0  0  0  0
 26 25  1  0  0  0  0
 27 28  1  0  0  0  0
 28 30  1  0  0  0  0
 29 31  1  0  0  0  0
 29 27  1  0  0  0  0
 31 32  1  0  0  0  0
 32 30  1  0  0  0  0
M  END
>  <Pose>
8

>  <Score>
-5.886

$$$$
5gs4_ligand_vina_out.pdbqt
 OpenBabel09072312113D

 32 36  0  0  1  0  0  0  0  0999 V2000
   -8.9500   -0.4370    1.8640 O   0  0  0  0  0  0  0  0  0  0  0  0
   -7.9910    0.1310    2.6670 C   0  0  0  0  0  0  0  0  0  0  0  0
   -5.9680    1.2530    4.3250 C   0  0  0  0  0  0  0  0  0  0  0  0
   -7.1390    1.9610    3.9990 C   0  0  0  0  0  3  0  0  0  0  0  0
   -5.8660    0.0060    3.8010 C   0  0  0  0  0  3  0  0  0  0  0  0
   -8.1140    1.4200    3.1990 C   0  0  0  0  0  3  0  0  0  0  0  0
   -6.8420   -0.5430    2.9970 C   0  0  0  0  0  3  0  0  0  0  0  0
   -5.0280    1.9710    5.1770 C   0  0  2  0  0  3  0  0  0  0  0  0
   -4.6430    4.5970    0.8370 C   0  0  0  0  0  0  0  0  0  0  0  0
   -5.5050    5.2730    1.6660 C   0  0  0  0  0  3  0  0  0  0  0  0
   -3.9700    3.5020    1.3650 C   0  0  0  0  0  3  0  0  0  0  0  0
   -5.6800    4.8640    2.9670 C   0  0  0  0  0  3  0  0  0  0  0  0
   -4.1350    3.0900    2.6470 C   0  0  0  0  0  0  0  0  0  0  0  0
   -4.9960    3.7580    3.4850 C   0  0  0  0  0  0  0  0  0  0  0  0
   -3.2190    1.6790    3.2520 S   0  0  0  0  0  0  0  0  0  0  0  0
   -5.2030    3.3710    4.8240 O   0  0  0  0  0  0  0  0  0  0  0  0
   -3.5950    1.6870    5.0660 C   0  0  2  0  0  3  0  0  0  0  0  0
   -4.4660    5.0100   -0.4800 O   0  0  0  0  0  0  0  0  0  0  0  0
   -4.7120    4.3840   -1.2310 H   0  0  0  0  0  0  0  0  0  0  0  0
   -3.0340    0.5560    5.7790 C   0  0  0  0  0  0  0  0  0  0  0  0
   -2.7310    0.3520    7.1040 C   0  0  0  0  0  3  0  0  0  0  0  0
   -2.7030   -0.5720    5.1420 O   0  0  0  0  0  0  0  0  0  0  0  0
   -2.2170   -0.9240    7.2020 C   0  0  0  0  0  3  0  0  0  0  0  0
   -2.2240   -1.4580    5.9370 C   0  0  0  0  0  3  0  0  0  0  0  0
   -9.7130    0.3590    1.0130 C   0  0  0  0  0  2  0  0  0  0  0  0
  -11.1790    0.3730    1.3860 C   0  0  0  0  0  2  0  0  0  0  0  0
  -11.8090    1.6340    1.1910 N   0  0  0  0  0  0  0  0  0  0  0  0
  -12.9270    1.9290    2.0180 C   0  0  0  0  0  2  0  0  0  0  0  0
  -10.9250    2.7080    0.8990 C   0  0  0  0  0  2  0  0  0  0  0  0
  -12.5650    2.6340    3.3030 C   0  0  0  0  0  2  0  0  0  0  0  0
  -11.0620    3.8790    1.8490 C   0  0  0  0  0  2  0  0  0  0  0  0
  -11.2760    3.3820    3.2580 C   0  0  0  0  0  2  0  0  0  0  0  0
  1  2  1  0  0  0  0
  2  7  2  0  0  0  0
  2  6  1  0  0  0  0
  4  3  1  0  0  0  0
  5  3  2  0  0  0  0
  6  4  2  0  0  0  0
  7  5  1  0  0  0  0
  8  3  1  6  0  0  0
  9 11  2  0  0  0  0
  9 10  1  0  0  0  0
 10 12  2  0  0  0  0
 11 13  1  0  0  0  0
 12 14  1  0  0  0  0
 13 15  1  0  0  0  0
 13 14  2  0  0  0  0
 14 16  1  0  0  0  0
 15 17  1  0  0  0  0
 16  8  1  0  0  0  0
 17  8  1  0  0  0  0
 17 20  1  6  0  0  0
 18  9  1  0  0  0  0
 19 18  1  0  0  0  0
 20 21  2  0  0  0  0
 21 23  1  0  0  0  0
 22 20  1  0  0  0  0
 22 24  1  0  0  0  0
 24 23  2  0  0  0  0
 25 26  1  0  0  0  0
 25  1  1  0  0  0  0
 27 26  1  0  0  0  0
 27 28  1  0  0  0  0
 28 30  1  0  0  0  0
 29 27  1  0  0  0  0
 29 31  1  0  0  0  0
 31 32  1  0  0  0  0
 32 30  1  0  0  0  0
M  END
>  <Pose>
9

>  <Score>
-5.856

$$$$
5gs4_ligand_vina_out.pdbqt
 OpenBabel09072312113D

 32 36  0  0  1  0  0  0  0  0999 V2000
   -4.5960    4.7580    5.4990 O   0  0  0  0  0  0  0  0  0  0  0  0
   -4.9040    4.3830    4.2140 C   0  0  0  0  0  0  0  0  0  0  0  0
   -5.4780    3.5790    1.5450 C   0  0  0  0  0  0  0  0  0  0  0  0
   -6.4170    4.2710    2.3310 C   0  0  0  0  0  3  0  0  0  0  0  0
   -4.2860    3.3200    2.1380 C   0  0  0  0  0  3  0  0  0  0  0  0
   -6.1390    4.6580    3.6180 C   0  0  0  0  0  3  0  0  0  0  0  0
   -4.0010    3.7070    3.4300 C   0  0  0  0  0  3  0  0  0  0  0  0
   -5.9310    3.2320    0.2030 C   0  0  2  0  0  3  0  0  0  0  0  0
   -8.0640   -0.4740    2.9600 C   0  0  0  0  0  0  0  0  0  0  0  0
   -9.0140    0.4960    2.7460 C   0  0  0  0  0  3  0  0  0  0  0  0
   -6.8510   -0.3420    2.2960 C   0  0  0  0  0  3  0  0  0  0  0  0
   -8.7520    1.5480    1.9010 C   0  0  0  0  0  3  0  0  0  0  0  0
   -6.5820    0.6940    1.4600 C   0  0  0  0  0  0  0  0  0  0  0  0
   -7.5250    1.6690    1.2400 C   0  0  0  0  0  0  0  0  0  0  0  0
   -4.9990    0.7800    0.6340 S   0  0  0  0  0  0  0  0  0  0  0  0
   -7.2960    2.7640    0.3820 O   0  0  0  0  0  0  0  0  0  0  0  0
   -5.2250    2.1900   -0.5470 C   0  0  2  0  0  3  0  0  0  0  0  0
   -8.3270   -1.5390    3.8160 O   0  0  0  0  0  0  0  0  0  0  0  0
   -7.5600   -2.0030    4.2750 H   0  0  0  0  0  0  0  0  0  0  0  0
   -4.0220    2.5300   -1.2810 C   0  0  0  0  0  0  0  0  0  0  0  0
   -2.8300    1.8690   -1.4660 C   0  0  0  0  0  3  0  0  0  0  0  0
   -3.9190    3.6800   -1.9530 O   0  0  0  0  0  0  0  0  0  0  0  0
   -2.0480    2.6780   -2.2620 C   0  0  0  0  0  3  0  0  0  0  0  0
   -2.7840    3.8040   -2.5390 C   0  0  0  0  0  3  0  0  0  0  0  0
   -3.6730    4.0240    6.2400 C   0  0  0  0  0  2  0  0  0  0  0  0
   -4.3220    2.9340    7.0660 C   0  0  0  0  0  2  0  0  0  0  0  0
   -3.6420    1.6860    7.0050 N   0  0  0  0  0  0  0  0  0  0  0  0
   -4.4410    0.5130    7.0830 C   0  0  0  0  0  2  0  0  0  0  0  0
   -2.5320    1.6500    6.1170 C   0  0  0  0  0  2  0  0  0  0  0  0
   -4.9010   -0.0010    5.7400 C   0  0  0  0  0  2  0  0  0  0  0  0
   -2.6220    0.5470    5.0830 C   0  0  0  0  0  2  0  0  0  0  0  0
   -4.0420    0.4100    4.5920 C   0  0  0  0  0  2  0  0  0  0  0  0
  1 25  1  0  0  0  0
  2  1  1  0  0  0  0
  3  5  2  0  0  0  0
  3  4  1  0  0  0  0
  4  6  2  0  0  0  0
  5  7  1  0  0  0  0
  6  2  1  0  0  0  0
  7  2  2  0  0  0  0
  8 16  1  0  0  0  0
  8  3  1  1  0  0  0
  9 18  1  0  0  0  0
 10  9  1  0  0  0  0
 11  9  2  0  0  0  0
 12 10  2  0  0  0  0
 13 11  1  0  0  0  0
 14 13  2  0  0  0  0
 14 12  1  0  0  0  0
 15 13  1  0  0  0  0
 16 14  1  0  0  0  0
 17 20  1  1  0  0  0
 17  8  1  0  0  0  0
 17 15  1  0  0  0  0
 18 19  1  0  0  0  0
 21 20  2  0  0  0  0
 22 20  1  0  0  0  0
 23 21  1  0  0  0  0
 24 23  2  0  0  0  0
 24 22  1  0  0  0  0
 25 26  1  0  0  0  0
 27 26  1  0  0  0  0
 27 28  1  0  0  0  0
 29 27  1  0  0  0  0
 30 28  1  0  0  0  0
 31 29  1  0  0  0  0
 32 31  1  0  0  0  0
 32 30  1  0  0  0  0
M  END
>  <Pose>
10

>  <Score>
-5.823

$$$$
