
 OpenBabel10142114273D

 37 39  0  0  1  0  0  0  0  0999 V2000
    5.8420   10.4500   15.7850 C   0  0  0  0  0  0  0  0  0  0  0  0
    6.7000   11.4420   15.4680 N   0  0  0  0  0  0  0  0  0  0  0  0
    6.5360   12.0770   14.2860 C   0  0  2  0  0  0  0  0  0  0  0  0
    5.4800   11.6770   13.4510 C   0  0  0  0  0  0  0  0  0  0  0  0
    4.6820   10.6340   13.9050 C   0  0  0  0  0  0  0  0  0  0  0  0
    4.8030    9.9690   15.0660 N   0  0  0  0  0  0  0  0  0  0  0  0
    3.7800   10.4260   12.8970 N   0  0  0  0  0  0  0  0  0  0  0  0
    4.0390   11.3460   11.9120 C   0  0  0  0  0  0  0  0  0  0  0  0
    5.0630   12.1170   12.2120 N   0  0  0  0  0  0  0  0  0  0  0  0
    2.7610    9.4020   12.8140 C   0  0  1  0  0  0  0  0  0  0  0  0
    1.3320    9.9110   12.6090 C   0  0  1  0  0  0  0  0  0  0  0  0
    0.6960    8.6750   11.9910 C   0  0  1  0  0  0  0  0  0  0  0  0
    1.8090    8.1490   11.0810 C   0  0  2  0  0  0  0  0  0  0  0  0
    3.0590    8.5060   11.7180 O   0  0  0  0  0  0  0  0  0  0  0  0
    1.7780    8.7410    9.6710 C   0  0  0  0  0  0  0  0  0  0  0  0
    1.3640    7.7700    8.7110 O   0  0  0  0  0  0  0  0  0  0  0  0
    1.0030    8.5080    7.1880 P   0  0  0  0  0  0  0  0  0  0  0  0
    1.3690    9.8980    7.7050 O   0  0  0  0  0  0  0  0  0  0  0  0
    2.3940    7.9340    6.5740 O   0  0  0  0  0  0  0  0  0  0  0  0
    0.6420    9.2450    5.6650 O   0  0  0  0  0  0  0  0  0  0  0  0
    0.4350    7.7720   13.0890 O   0  0  0  0  0  0  0  0  0  0  0  0
    0.6880   10.2750   13.8290 O   0  0  0  0  0  0  0  0  0  0  0  0
    7.4200   13.0770   13.9480 N   0  0  0  0  0  0  0  0  0  0  0  0
    6.0150    9.9740   16.7450 H   0  0  0  0  0  0  0  0  0  0  0  0
    3.4610   11.4040   10.9990 H   0  0  0  0  0  0  0  0  0  0  0  0
    2.8260    8.8130   13.7380 H   0  0  0  0  0  0  0  0  0  0  0  0
    1.2790   10.7590   11.9210 H   0  0  0  0  0  0  0  0  0  0  0  0
   -0.2560    8.8710   11.4910 H   0  0  0  0  0  0  0  0  0  0  0  0
    1.7690    7.0560   11.0130 H   0  0  0  0  0  0  0  0  0  0  0  0
    2.7790    9.1050    9.4110 H   0  0  0  0  0  0  0  0  0  0  0  0
    1.1020    9.6000    9.6160 H   0  0  0  0  0  0  0  0  0  0  0  0
    2.7980    7.3260    7.2190 H   0  0  0  0  0  0  0  0  0  0  0  0
   -0.1640    9.7680    5.8530 H   0  0  0  0  0  0  0  0  0  0  0  0
   -0.5160    7.5580   13.0950 H   0  0  0  0  0  0  0  0  0  0  0  0
    0.8670   11.2330   13.9470 H   0  0  0  0  0  0  0  0  0  0  0  0
    7.8710   13.5880   14.6890 H   0  0  0  0  0  0  0  0  0  0  0  0
    7.6430   13.2230   12.9750 H   0  0  0  0  0  0  0  0  0  0  0  0
  1 24  1  0  0  0  0
  2  1  2  0  0  0  0
  3 23  1  6  0  0  0
  3  2  1  0  0  0  0
  4  5  2  0  0  0  0
  4  3  1  0  0  0  0
  5  6  1  0  0  0  0
  6  1  1  0  0  0  0
  7  5  1  0  0  0  0
  8  9  2  0  0  0  0
  8  7  1  0  0  0  0
  9  4  1  0  0  0  0
 10  7  1  0  0  0  0
 10 26  1  1  0  0  0
 11 27  1  6  0  0  0
 11 10  1  0  0  0  0
 11 22  1  0  0  0  0
 12 28  1  6  0  0  0
 12 11  1  0  0  0  0
 12 21  1  0  0  0  0
 13 29  1  6  0  0  0
 13 14  1  0  0  0  0
 13 12  1  0  0  0  0
 14 10  1  0  0  0  0
 15 13  1  0  0  0  0
 16 15  1  0  0  0  0
 17 18  2  0  0  0  0
 17 16  1  0  0  0  0
 19 17  1  0  0  0  0
 19 32  1  0  0  0  0
 20 33  1  0  0  0  0
 20 17  1  0  0  0  0
 21 34  1  0  0  0  0
 22 35  1  0  0  0  0
 23 36  1  0  0  0  0
 25  8  1  0  0  0  0
 30 15  1  0  0  0  0
 31 15  1  0  0  0  0
 37 23  1  0  0  0  0
M  END
>  <Pose>
5

>  <Score>
-9.59

$$$$

 OpenBabel10142114273D

 37 39  0  0  1  0  0  0  0  0999 V2000
    5.9630    9.8660   15.6760 C   0  0  0  0  0  0  0  0  0  0  0  0
    6.6990   10.9800   15.4800 N   0  0  0  0  0  0  0  0  0  0  0  0
    6.4020   11.7640   14.4200 C   0  0  2  0  0  0  0  0  0  0  0  0
    5.3420   11.3850   13.5800 C   0  0  0  0  0  0  0  0  0  0  0  0
    4.6800   10.2060   13.9010 C   0  0  0  0  0  0  0  0  0  0  0  0
    4.9350    9.3910   14.9380 N   0  0  0  0  0  0  0  0  0  0  0  0
    3.7430   10.0580   12.9140 N   0  0  0  0  0  0  0  0  0  0  0  0
    3.8520   11.1380   12.0740 C   0  0  0  0  0  0  0  0  0  0  0  0
    4.8110   11.9590   12.4450 N   0  0  0  0  0  0  0  0  0  0  0  0
    2.8270    8.9560   12.7170 C   0  0  1  0  0  0  0  0  0  0  0  0
    1.3470    9.3370   12.6360 C   0  0  1  0  0  0  0  0  0  0  0  0
    0.8070    8.1410   11.8670 C   0  0  1  0  0  0  0  0  0  0  0  0
    1.9210    7.8670   10.8540 C   0  0  2  0  0  0  0  0  0  0  0  0
    3.1590    8.2590   11.4940 O   0  0  0  0  0  0  0  0  0  0  0  0
    1.7650    8.6450    9.5470 C   0  0  0  0  0  0  0  0  0  0  0  0
    2.1620    7.8570    8.4250 O   0  0  0  0  0  0  0  0  0  0  0  0
    1.3310    8.3470    6.9880 P   0  0  0  0  0  0  0  0  0  0  0  0
    2.5520    8.0690    6.1140 O   0  0  0  0  0  0  0  0  0  0  0  0
    0.5080    6.9460    6.9800 O   0  0  0  0  0  0  0  0  0  0  0  0
    0.5010    8.8370    5.5520 O   0  0  0  0  0  0  0  0  0  0  0  0
    0.6880    7.0700   12.8300 O   0  0  0  0  0  0  0  0  0  0  0  0
    0.7300    9.4570   13.9170 O   0  0  0  0  0  0  0  0  0  0  0  0
    7.1620   12.8920   14.2030 N   0  0  0  0  0  0  0  0  0  0  0  0
    6.2400    9.2720   16.5420 H   0  0  0  0  0  0  0  0  0  0  0  0
    3.2170   11.2710   11.2070 H   0  0  0  0  0  0  0  0  0  0  0  0
    2.9940    8.2520   13.5440 H   0  0  0  0  0  0  0  0  0  0  0  0
    1.1790   10.2640   12.0800 H   0  0  0  0  0  0  0  0  0  0  0  0
   -0.1830    8.3060   11.4330 H   0  0  0  0  0  0  0  0  0  0  0  0
    1.9850    6.7960   10.6290 H   0  0  0  0  0  0  0  0  0  0  0  0
    2.3810    9.5500    9.5900 H   0  0  0  0  0  0  0  0  0  0  0  0
    0.7300    8.9700    9.3990 H   0  0  0  0  0  0  0  0  0  0  0  0
   -0.4340    7.1310    7.1450 H   0  0  0  0  0  0  0  0  0  0  0  0
   -0.0640    9.5760    5.8590 H   0  0  0  0  0  0  0  0  0  0  0  0
   -0.1640    7.1630   13.2930 H   0  0  0  0  0  0  0  0  0  0  0  0
    0.3850    8.5630   14.1280 H   0  0  0  0  0  0  0  0  0  0  0  0
    6.8730   13.5340   13.4840 H   0  0  0  0  0  0  0  0  0  0  0  0
    7.9440   13.0780   14.8140 H   0  0  0  0  0  0  0  0  0  0  0  0
  1 24  1  0  0  0  0
  2  1  2  0  0  0  0
  3 23  1  6  0  0  0
  3  2  1  0  0  0  0
  4  5  2  0  0  0  0
  4  3  1  0  0  0  0
  5  6  1  0  0  0  0
  6  1  1  0  0  0  0
  7  5  1  0  0  0  0
  8  9  2  0  0  0  0
  8  7  1  0  0  0  0
  9  4  1  0  0  0  0
 10  7  1  0  0  0  0
 10 26  1  1  0  0  0
 11 27  1  6  0  0  0
 11 10  1  0  0  0  0
 11 22  1  0  0  0  0
 12 28  1  6  0  0  0
 12 11  1  0  0  0  0
 12 21  1  0  0  0  0
 13 29  1  6  0  0  0
 13 14  1  0  0  0  0
 13 12  1  0  0  0  0
 14 10  1  0  0  0  0
 15 30  1  0  0  0  0
 15 13  1  0  0  0  0
 16 15  1  0  0  0  0
 17 16  1  0  0  0  0
 18 17  2  0  0  0  0
 19 17  1  0  0  0  0
 19 32  1  0  0  0  0
 20 33  1  0  0  0  0
 20 17  1  0  0  0  0
 21 34  1  0  0  0  0
 22 35  1  0  0  0  0
 23 37  1  0  0  0  0
 25  8  1  0  0  0  0
 31 15  1  0  0  0  0
 36 23  1  0  0  0  0
M  END
>  <Pose>
1

>  <Score>
-9.11

$$$$

 OpenBabel10142114273D

 37 39  0  0  1  0  0  0  0  0999 V2000
    5.7640    9.4250   15.6780 C   0  0  0  0  0  0  0  0  0  0  0  0
    6.4560   10.5750   15.5320 N   0  0  0  0  0  0  0  0  0  0  0  0
    6.1000   11.4130   14.5340 C   0  0  2  0  0  0  0  0  0  0  0  0
    5.0280   11.0500   13.7020 C   0  0  0  0  0  0  0  0  0  0  0  0
    4.4160    9.8300   13.9650 C   0  0  0  0  0  0  0  0  0  0  0  0
    4.7310    8.9610   14.9400 N   0  0  0  0  0  0  0  0  0  0  0  0
    3.4550    9.7110   12.9980 N   0  0  0  0  0  0  0  0  0  0  0  0
    3.5010   10.8450   12.2260 C   0  0  0  0  0  0  0  0  0  0  0  0
    4.4430   11.6750   12.6210 N   0  0  0  0  0  0  0  0  0  0  0  0
    2.5720    8.5910   12.7580 C   0  0  1  0  0  0  0  0  0  0  0  0
    1.0760    8.9150   12.7920 C   0  0  1  0  0  0  0  0  0  0  0  0
    0.5370    7.7650   11.9530 C   0  0  1  0  0  0  0  0  0  0  0  0
    1.5990    7.6260   10.8600 C   0  0  2  0  0  0  0  0  0  0  0  0
    2.8570    8.0150   11.4620 O   0  0  0  0  0  0  0  0  0  0  0  0
    1.3370    8.5050    9.6360 C   0  0  0  0  0  0  0  0  0  0  0  0
    1.8690    7.9140    8.4510 O   0  0  0  0  0  0  0  0  0  0  0  0
    1.0680    8.5090    7.0380 P   0  0  0  0  0  0  0  0  0  0  0  0
    1.2000    9.9590    7.4990 O   0  0  0  0  0  0  0  0  0  0  0  0
    2.4110    8.2480    6.1600 O   0  0  0  0  0  0  0  0  0  0  0  0
    0.2670    9.1050    5.6250 O   0  0  0  0  0  0  0  0  0  0  0  0
    0.5160    6.6140   12.8250 O   0  0  0  0  0  0  0  0  0  0  0  0
    0.5310    8.8990   14.1110 O   0  0  0  0  0  0  0  0  0  0  0  0
    6.8140   12.5790   14.3680 N   0  0  0  0  0  0  0  0  0  0  0  0
    6.0880    8.7880   16.4950 H   0  0  0  0  0  0  0  0  0  0  0  0
    2.8360   11.0090   11.3880 H   0  0  0  0  0  0  0  0  0  0  0  0
    2.8130    7.8280   13.5100 H   0  0  0  0  0  0  0  0  0  0  0  0
    0.8400    9.8770   12.3290 H   0  0  0  0  0  0  0  0  0  0  0  0
   -0.4820    7.9240   11.5910 H   0  0  0  0  0  0  0  0  0  0  0  0
    1.6900    6.5820   10.5400 H   0  0  0  0  0  0  0  0  0  0  0  0
    1.7990    9.4860    9.7910 H   0  0  0  0  0  0  0  0  0  0  0  0
    0.2660    8.6750    9.4910 H   0  0  0  0  0  0  0  0  0  0  0  0
    2.7340    7.3460    6.3370 H   0  0  0  0  0  0  0  0  0  0  0  0
   -0.3760    9.7490    5.9850 H   0  0  0  0  0  0  0  0  0  0  0  0
   -0.1880    6.7390   13.4880 H   0  0  0  0  0  0  0  0  0  0  0  0
    0.0000    8.0760   14.1670 H   0  0  0  0  0  0  0  0  0  0  0  0
    6.4470   13.2820   13.7480 H   0  0  0  0  0  0  0  0  0  0  0  0
    7.6450   12.7250   14.9220 H   0  0  0  0  0  0  0  0  0  0  0  0
  1 24  1  0  0  0  0
  2  1  2  0  0  0  0
  3 23  1  6  0  0  0
  3  2  1  0  0  0  0
  4  5  2  0  0  0  0
  4  3  1  0  0  0  0
  5  6  1  0  0  0  0
  6  1  1  0  0  0  0
  7  5  1  0  0  0  0
  8  9  2  0  0  0  0
  8  7  1  0  0  0  0
  9  4  1  0  0  0  0
 10 11  1  0  0  0  0
 10  7  1  0  0  0  0
 10 26  1  1  0  0  0
 11 27  1  6  0  0  0
 11 22  1  0  0  0  0
 12 28  1  6  0  0  0
 12 11  1  0  0  0  0
 12 21  1  0  0  0  0
 13 29  1  6  0  0  0
 13 14  1  0  0  0  0
 13 12  1  0  0  0  0
 14 10  1  0  0  0  0
 15 30  1  0  0  0  0
 15 13  1  0  0  0  0
 16 15  1  0  0  0  0
 17 18  2  0  0  0  0
 17 16  1  0  0  0  0
 19 32  1  0  0  0  0
 19 17  1  0  0  0  0
 20 33  1  0  0  0  0
 20 17  1  0  0  0  0
 21 34  1  0  0  0  0
 22 35  1  0  0  0  0
 23 37  1  0  0  0  0
 25  8  1  0  0  0  0
 31 15  1  0  0  0  0
 36 23  1  0  0  0  0
M  END
>  <Pose>
1

>  <Score>
-9.07

$$$$

 OpenBabel10142114273D

 37 39  0  0  1  0  0  0  0  0999 V2000
    5.4860   10.8010   15.8340 C   0  0  0  0  0  0  0  0  0  0  0  0
    6.4440   11.6740   15.4530 N   0  0  0  0  0  0  0  0  0  0  0  0
    6.4340   12.1160   14.1770 C   0  0  2  0  0  0  0  0  0  0  0  0
    5.4290   11.6520   13.3120 C   0  0  0  0  0  0  0  0  0  0  0  0
    4.5160   10.7470   13.8410 C   0  0  0  0  0  0  0  0  0  0  0  0
    4.4820   10.2750   15.0990 N   0  0  0  0  0  0  0  0  0  0  0  0
    3.6940   10.4340   12.7930 N   0  0  0  0  0  0  0  0  0  0  0  0
    4.1110   11.1630   11.7080 C   0  0  0  0  0  0  0  0  0  0  0  0
    5.1600   11.9080   11.9840 N   0  0  0  0  0  0  0  0  0  0  0  0
    2.6120    9.4750   12.7700 C   0  0  1  0  0  0  0  0  0  0  0  0
    1.2940    9.9860   12.1830 C   0  0  1  0  0  0  0  0  0  0  0  0
    0.6560    8.6670   11.7740 C   0  0  1  0  0  0  0  0  0  0  0  0
    1.8520    7.8720   11.2430 C   0  0  2  0  0  0  0  0  0  0  0  0
    3.0040    8.3160   11.9980 O   0  0  0  0  0  0  0  0  0  0  0  0
    2.1170    8.0870    9.7520 C   0  0  0  0  0  0  0  0  0  0  0  0
    0.9000    8.0940    9.0060 O   0  0  0  0  0  0  0  0  0  0  0  0
    1.1760    8.5520    7.3610 P   0  0  0  0  0  0  0  0  0  0  0  0
   -0.2490    8.1800    6.9540 O   0  0  0  0  0  0  0  0  0  0  0  0
    1.0750   10.1200    7.7740 O   0  0  0  0  0  0  0  0  0  0  0  0
    1.4520    9.0100    5.7150 O   0  0  0  0  0  0  0  0  0  0  0  0
    0.1280    8.0870   12.9870 O   0  0  0  0  0  0  0  0  0  0  0  0
    0.4900   10.6800   13.1360 O   0  0  0  0  0  0  0  0  0  0  0  0
    7.4200   12.9910   13.7770 N   0  0  0  0  0  0  0  0  0  0  0  0
    5.5370   10.4780   16.8700 H   0  0  0  0  0  0  0  0  0  0  0  0
    3.6230   11.1070   10.7430 H   0  0  0  0  0  0  0  0  0  0  0  0
    2.4630    9.1380   13.8040 H   0  0  0  0  0  0  0  0  0  0  0  0
    1.4390   10.6330   11.3140 H   0  0  0  0  0  0  0  0  0  0  0  0
   -0.1740    8.7770   11.0710 H   0  0  0  0  0  0  0  0  0  0  0  0
    1.7200    6.8010   11.4340 H   0  0  0  0  0  0  0  0  0  0  0  0
    2.7640    7.2830    9.3810 H   0  0  0  0  0  0  0  0  0  0  0  0
    2.6430    9.0290    9.5740 H   0  0  0  0  0  0  0  0  0  0  0  0
    1.9030   10.5670    7.5250 H   0  0  0  0  0  0  0  0  0  0  0  0
    0.5540    9.2250    5.3870 H   0  0  0  0  0  0  0  0  0  0  0  0
   -0.3710    7.2820   12.7550 H   0  0  0  0  0  0  0  0  0  0  0  0
   -0.1740   11.1750   12.6110 H   0  0  0  0  0  0  0  0  0  0  0  0
    7.4450   13.2770   12.8120 H   0  0  0  0  0  0  0  0  0  0  0  0
    8.0440   13.3740   14.4720 H   0  0  0  0  0  0  0  0  0  0  0  0
  1 24  1  0  0  0  0
  2  1  2  0  0  0  0
  3 23  1  6  0  0  0
  3  2  1  0  0  0  0
  4  5  2  0  0  0  0
  4  3  1  0  0  0  0
  5  6  1  0  0  0  0
  6  1  1  0  0  0  0
  7  5  1  0  0  0  0
  8  9  2  0  0  0  0
  8  7  1  0  0  0  0
  9  4  1  0  0  0  0
 10  7  1  0  0  0  0
 10 26  1  1  0  0  0
 11 27  1  6  0  0  0
 11 10  1  0  0  0  0
 11 22  1  0  0  0  0
 12 28  1  6  0  0  0
 12 11  1  0  0  0  0
 12 21  1  0  0  0  0
 13 29  1  1  0  0  0
 13 12  1  0  0  0  0
 13 14  1  0  0  0  0
 14 10  1  0  0  0  0
 15 13  1  0  0  0  0
 16 15  1  0  0  0  0
 17 19  1  0  0  0  0
 17 16  1  0  0  0  0
 18 17  2  0  0  0  0
 20 17  1  0  0  0  0
 23 37  1  0  0  0  0
 25  8  1  0  0  0  0
 30 15  1  0  0  0  0
 31 15  1  0  0  0  0
 32 19  1  0  0  0  0
 33 20  1  0  0  0  0
 34 21  1  0  0  0  0
 35 22  1  0  0  0  0
 36 23  1  0  0  0  0
M  END
>  <Pose>
1

>  <Score>
-9.01

$$$$

 OpenBabel10142114273D

 37 39  0  0  1  0  0  0  0  0999 V2000
    4.8340   11.8880   11.9900 C   0  0  0  0  0  0  0  0  0  0  0  0
    5.7010   12.5410   12.7930 N   0  0  0  0  0  0  0  0  0  0  0  0
    5.9210   12.0490   14.0320 C   0  0  2  0  0  0  0  0  0  0  0  0
    5.2420   10.8830   14.4210 C   0  0  0  0  0  0  0  0  0  0  0  0
    4.3710   10.3250   13.4930 C   0  0  0  0  0  0  0  0  0  0  0  0
    4.1160   10.7740   12.2520 N   0  0  0  0  0  0  0  0  0  0  0  0
    3.8240    9.2480   14.1360 N   0  0  0  0  0  0  0  0  0  0  0  0
    4.3910    9.1800   15.3850 C   0  0  0  0  0  0  0  0  0  0  0  0
    5.2500   10.1550   15.5930 N   0  0  0  0  0  0  0  0  0  0  0  0
    2.7940    8.3550   13.6540 C   0  0  1  0  0  0  0  0  0  0  0  0
    1.3790    8.9380   13.6250 C   0  0  1  0  0  0  0  0  0  0  0  0
    0.7430    8.0380   12.5750 C   0  0  1  0  0  0  0  0  0  0  0  0
    1.8740    7.8640   11.5580 C   0  0  2  0  0  0  0  0  0  0  0  0
    3.1100    7.9270   12.3090 O   0  0  0  0  0  0  0  0  0  0  0  0
    1.8920    8.9410   10.4730 C   0  0  0  0  0  0  0  0  0  0  0  0
    0.6920    8.9190    9.7010 O   0  0  0  0  0  0  0  0  0  0  0  0
    1.0330    8.7470    8.0140 P   0  0  0  0  0  0  0  0  0  0  0  0
   -0.4380    8.5120    7.6780 O   0  0  0  0  0  0  0  0  0  0  0  0
    1.2190   10.3560    7.8820 O   0  0  0  0  0  0  0  0  0  0  0  0
    1.3750    8.5760    6.3270 O   0  0  0  0  0  0  0  0  0  0  0  0
    0.4380    6.7970   13.2490 O   0  0  0  0  0  0  0  0  0  0  0  0
    0.7060    8.8340   14.8780 O   0  0  0  0  0  0  0  0  0  0  0  0
    6.7900   12.7220   14.8620 N   0  0  0  0  0  0  0  0  0  0  0  0
    4.6940   12.3230   11.0050 H   0  0  0  0  0  0  0  0  0  0  0  0
    4.1360    8.4100   16.1020 H   0  0  0  0  0  0  0  0  0  0  0  0
    2.8240    7.4610   14.2920 H   0  0  0  0  0  0  0  0  0  0  0  0
    1.3580    9.9830   13.3030 H   0  0  0  0  0  0  0  0  0  0  0  0
   -0.1910    8.4300   12.1650 H   0  0  0  0  0  0  0  0  0  0  0  0
    1.8210    6.8770   11.0850 H   0  0  0  0  0  0  0  0  0  0  0  0
    2.7510    8.7730    9.8120 H   0  0  0  0  0  0  0  0  0  0  0  0
    2.0130    9.9390   10.9050 H   0  0  0  0  0  0  0  0  0  0  0  0
    0.5740   10.7980    8.4620 H   0  0  0  0  0  0  0  0  0  0  0  0
    0.4910    8.4320    5.9310 H   0  0  0  0  0  0  0  0  0  0  0  0
   -0.4360    6.8800   13.6720 H   0  0  0  0  0  0  0  0  0  0  0  0
    0.0080    8.1560   14.7480 H   0  0  0  0  0  0  0  0  0  0  0  0
    7.2780   12.1990   15.5700 H   0  0  0  0  0  0  0  0  0  0  0  0
    6.9650   13.7020   14.6940 H   0  0  0  0  0  0  0  0  0  0  0  0
  1  6  1  0  0  0  0
  1  2  2  0  0  0  0
  2  3  1  0  0  0  0
  3  4  1  0  0  0  0
  3 23  1  1  0  0  0
  4  9  1  0  0  0  0
  5  7  1  0  0  0  0
  5  4  2  0  0  0  0
  6  5  1  0  0  0  0
  7  8  1  0  0  0  0
  8  9  2  0  0  0  0
  8 25  1  0  0  0  0
 10  7  1  0  0  0  0
 10 26  1  1  0  0  0
 11 27  1  6  0  0  0
 11 10  1  0  0  0  0
 11 22  1  0  0  0  0
 12 28  1  6  0  0  0
 12 21  1  0  0  0  0
 12 11  1  0  0  0  0
 13 29  1  6  0  0  0
 13 14  1  0  0  0  0
 13 12  1  0  0  0  0
 14 10  1  0  0  0  0
 15 31  1  0  0  0  0
 15 13  1  0  0  0  0
 16 15  1  0  0  0  0
 17 16  1  0  0  0  0
 18 17  2  0  0  0  0
 19 17  1  0  0  0  0
 19 32  1  0  0  0  0
 20 17  1  0  0  0  0
 21 34  1  0  0  0  0
 23 36  1  0  0  0  0
 24  1  1  0  0  0  0
 30 15  1  0  0  0  0
 33 20  1  0  0  0  0
 35 22  1  0  0  0  0
 37 23  1  0  0  0  0
M  END
>  <Pose>
1

>  <Score>
-8.36

$$$$

 OpenBabel10142114273D

 37 39  0  0  1  0  0  0  0  0999 V2000
    5.9740   10.1940   15.7040 C   0  0  0  0  0  0  0  0  0  0  0  0
    6.7140   11.2990   15.4700 N   0  0  0  0  0  0  0  0  0  0  0  0
    6.4270   12.0410   14.3770 C   0  0  2  0  0  0  0  0  0  0  0  0
    5.3740   11.6290   13.5440 C   0  0  0  0  0  0  0  0  0  0  0  0
    4.7070   10.4650   13.9050 C   0  0  0  0  0  0  0  0  0  0  0  0
    4.9520    9.6920   14.9760 N   0  0  0  0  0  0  0  0  0  0  0  0
    3.7790   10.2790   12.9160 N   0  0  0  0  0  0  0  0  0  0  0  0
    3.8960   11.3240   12.0350 C   0  0  0  0  0  0  0  0  0  0  0  0
    4.8540   12.1590   12.3820 N   0  0  0  0  0  0  0  0  0  0  0  0
    2.8630    9.1710   12.7560 C   0  0  1  0  0  0  0  0  0  0  0  0
    1.4240    9.4370   13.2030 C   0  0  1  0  0  0  0  0  0  0  0  0
    0.6910    8.3890   12.3790 C   0  0  1  0  0  0  0  0  0  0  0  0
    1.4450    8.4270   11.0470 C   0  0  2  0  0  0  0  0  0  0  0  0
    2.8140    8.7770   11.3650 O   0  0  0  0  0  0  0  0  0  0  0  0
    0.8850    9.4470   10.0550 C   0  0  0  0  0  0  0  0  0  0  0  0
    1.6330    9.4510    8.8400 O   0  0  0  0  0  0  0  0  0  0  0  0
    1.1230    8.1790    7.7850 P   0  0  0  0  0  0  0  0  0  0  0  0
    0.0420    9.0530    7.1530 O   0  0  0  0  0  0  0  0  0  0  0  0
    2.4290    8.4230    6.8490 O   0  0  0  0  0  0  0  0  0  0  0  0
    0.6130    6.9060    6.7300 O   0  0  0  0  0  0  0  0  0  0  0  0
    0.8890    7.1340   13.0670 O   0  0  0  0  0  0  0  0  0  0  0  0
    1.2260    9.2340   14.6010 O   0  0  0  0  0  0  0  0  0  0  0  0
    7.1910   13.1580   14.1230 N   0  0  0  0  0  0  0  0  0  0  0  0
    6.2420    9.6340   16.5950 H   0  0  0  0  0  0  0  0  0  0  0  0
    3.2700   11.4240   11.1580 H   0  0  0  0  0  0  0  0  0  0  0  0
    3.2850    8.3260   13.3150 H   0  0  0  0  0  0  0  0  0  0  0  0
    1.0790   10.4430   12.9450 H   0  0  0  0  0  0  0  0  0  0  0  0
   -0.3860    8.5590   12.3050 H   0  0  0  0  0  0  0  0  0  0  0  0
    1.4540    7.4370   10.5790 H   0  0  0  0  0  0  0  0  0  0  0  0
    0.9210   10.4460   10.5060 H   0  0  0  0  0  0  0  0  0  0  0  0
   -0.1630    9.2400    9.8210 H   0  0  0  0  0  0  0  0  0  0  0  0
    2.2820    9.2130    6.3010 H   0  0  0  0  0  0  0  0  0  0  0  0
   -0.3650    6.9610    6.7660 H   0  0  0  0  0  0  0  0  0  0  0  0
    0.2160    7.0550   13.7680 H   0  0  0  0  0  0  0  0  0  0  0  0
    0.5670    8.5110   14.6720 H   0  0  0  0  0  0  0  0  0  0  0  0
    7.6720   13.5950   14.8920 H   0  0  0  0  0  0  0  0  0  0  0  0
    7.3030   13.4650   13.1680 H   0  0  0  0  0  0  0  0  0  0  0  0
  1 24  1  0  0  0  0
  2  1  2  0  0  0  0
  3 23  1  6  0  0  0
  3  2  1  0  0  0  0
  4  5  2  0  0  0  0
  4  3  1  0  0  0  0
  5  6  1  0  0  0  0
  6  1  1  0  0  0  0
  7  5  1  0  0  0  0
  8  9  2  0  0  0  0
  8  7  1  0  0  0  0
  9  4  1  0  0  0  0
 10  7  1  0  0  0  0
 10 11  1  0  0  0  0
 10 26  1  1  0  0  0
 11 27  1  6  0  0  0
 11 22  1  0  0  0  0
 12 28  1  6  0  0  0
 12 21  1  0  0  0  0
 12 11  1  0  0  0  0
 13 29  1  6  0  0  0
 13 14  1  0  0  0  0
 13 12  1  0  0  0  0
 14 10  1  0  0  0  0
 15 30  1  0  0  0  0
 15 13  1  0  0  0  0
 16 15  1  0  0  0  0
 17 16  1  0  0  0  0
 18 17  2  0  0  0  0
 19 17  1  0  0  0  0
 20 33  1  0  0  0  0
 20 17  1  0  0  0  0
 21 34  1  0  0  0  0
 22 35  1  0  0  0  0
 23 36  1  0  0  0  0
 25  8  1  0  0  0  0
 31 15  1  0  0  0  0
 32 19  1  0  0  0  0
 37 23  1  0  0  0  0
M  END
>  <Pose>
1

>  <Score>
-8.15

$$$$
