
 OpenBabel10142114273D

 33 34  0  0  1  0  0  0  0  0999 V2000
    2.1120    7.5110   13.5020 C   0  0  0  0  0  0  0  0  0  0  0  0
    2.2440    8.6830   12.5300 C   0  0  2  0  0  0  0  0  0  0  0  0
    2.4350    9.9920   13.3160 C   0  0  0  0  0  0  0  0  0  0  0  0
    3.6730   10.7160   13.0910 N   0  0  0  0  0  0  0  0  0  0  0  0
    4.1140   11.3460   11.9590 C   0  0  0  0  0  0  0  0  0  0  0  0
    5.2370   12.0050   12.1630 N   0  0  0  0  0  0  0  0  0  0  0  0
    5.5460   11.7760   13.4840 C   0  0  0  0  0  0  0  0  0  0  0  0
    6.5920   12.2270   14.3040 C   0  0  2  0  0  0  0  0  0  0  0  0
    6.6370   11.8020   15.5870 N   0  0  0  0  0  0  0  0  0  0  0  0
    5.6620   10.9710   16.0180 C   0  0  0  0  0  0  0  0  0  0  0  0
    4.5960   10.4970   15.3380 N   0  0  0  0  0  0  0  0  0  0  0  0
    4.6040   10.9470   14.0730 C   0  0  0  0  0  0  0  0  0  0  0  0
    7.5620   13.0990   13.8620 N   0  0  0  0  0  0  0  0  0  0  0  0
    1.0370    8.7800   11.7670 O   0  0  0  0  0  0  0  0  0  0  0  0
    1.2270    8.6710   10.3440 C   0  0  0  0  0  0  0  0  0  0  0  0
    0.0550    9.7030    9.2780 P   0  0  1  0  0  0  0  0  0  0  0  0
    0.8730    9.7680    8.0690 O   0  0  0  0  0  0  0  0  0  0  0  0
   -1.0050    8.4630    8.7700 N   0  0  0  0  0  0  0  0  0  0  0  0
   -0.9060    8.0160    7.3810 C   0  0  0  0  0  0  0  0  0  0  0  0
    2.0200    6.5630   12.9620 H   0  0  0  0  0  0  0  0  0  0  0  0
    1.2060    7.6120   14.1100 H   0  0  0  0  0  0  0  0  0  0  0  0
    2.9760    7.4440   14.1700 H   0  0  0  0  0  0  0  0  0  0  0  0
    3.1090    8.5320   11.8720 H   0  0  0  0  0  0  0  0  0  0  0  0
    1.6320   10.6940   13.0600 H   0  0  0  0  0  0  0  0  0  0  0  0
    2.3900    9.7870   14.3920 H   0  0  0  0  0  0  0  0  0  0  0  0
    3.5880   11.3200   11.0130 H   0  0  0  0  0  0  0  0  0  0  0  0
    5.7480   10.6440   17.0500 H   0  0  0  0  0  0  0  0  0  0  0  0
    8.1190   13.5880   14.5490 H   0  0  0  0  0  0  0  0  0  0  0  0
    7.7640   13.1330   12.8770 H   0  0  0  0  0  0  0  0  0  0  0  0
    1.0810    7.6190   10.0770 H   0  0  0  0  0  0  0  0  0  0  0  0
    2.2510    8.9510   10.0690 H   0  0  0  0  0  0  0  0  0  0  0  0
   -1.9640    8.7370    8.9690 H   0  0  0  0  0  0  0  0  0  0  0  0
   -0.7830    7.6910    6.3710 H   0  0  0  0  0  0  0  0  0  0  0  0
  1 21  1  0  0  0  0
  1 22  1  0  0  0  0
  2 23  1  6  0  0  0
  2  3  1  0  0  0  0
  2  1  1  0  0  0  0
  3 25  1  0  0  0  0
  4  3  1  0  0  0  0
  4 12  1  0  0  0  0
  5  6  2  0  0  0  0
  5  4  1  0  0  0  0
  6  7  1  0  0  0  0
  7 12  2  0  0  0  0
  7  8  1  0  0  0  0
  8 13  1  1  0  0  0
  8  9  1  0  0  0  0
  9 10  2  0  0  0  0
 10 27  1  0  0  0  0
 11 10  1  0  0  0  0
 12 11  1  0  0  0  0
 13 28  1  0  0  0  0
 14  2  1  0  0  0  0
 15 14  1  0  0  0  0
 16 17  1  6  0  0  0
 16 15  1  0  0  0  0
 18 32  1  0  0  0  0
 18 16  1  0  0  0  0
 19 18  1  0  0  0  0
 20  1  1  0  0  0  0
 24  3  1  0  0  0  0
 26  5  1  0  0  0  0
 29 13  1  0  0  0  0
 30 15  1  0  0  0  0
 31 15  1  0  0  0  0
 33 19  1  0  0  0  0
M  END
>  <Pose>
2

>  <Score>
-7.40

$$$$

 OpenBabel10142114273D

 33 34  0  0  1  0  0  0  0  0999 V2000
    0.2560   10.5440   11.7110 C   0  0  0  0  0  0  0  0  0  0  0  0
    1.4320    9.5700   11.7650 C   0  0  2  0  0  0  0  0  0  0  0  0
    2.7440   10.3210   11.4750 C   0  0  0  0  0  0  0  0  0  0  0  0
    3.5960   10.6150   12.6120 N   0  0  0  0  0  0  0  0  0  0  0  0
    3.5890   10.0630   13.8640 C   0  0  0  0  0  0  0  0  0  0  0  0
    4.5920   10.4940   14.6020 N   0  0  0  0  0  0  0  0  0  0  0  0
    5.2700   11.3790   13.7960 C   0  0  0  0  0  0  0  0  0  0  0  0
    6.4350   12.1360   13.9900 C   0  0  2  0  0  0  0  0  0  0  0  0
    6.8510   12.9500   12.9930 N   0  0  0  0  0  0  0  0  0  0  0  0
    6.1270   12.9830   11.8520 C   0  0  0  0  0  0  0  0  0  0  0  0
    5.0160   12.2820   11.5390 N   0  0  0  0  0  0  0  0  0  0  0  0
    4.6470   11.4960   12.5630 C   0  0  0  0  0  0  0  0  0  0  0  0
    7.1830   12.0710   15.1450 N   0  0  0  0  0  0  0  0  0  0  0  0
    1.2440    8.5730   10.7560 O   0  0  0  0  0  0  0  0  0  0  0  0
   -0.0870    8.5310   10.2070 C   0  0  0  0  0  0  0  0  0  0  0  0
   -0.6180    6.8740    9.4670 P   0  0  1  0  0  0  0  0  0  0  0  0
   -1.7160    6.5770   10.3830 O   0  0  0  0  0  0  0  0  0  0  0  0
   -1.5570    7.4540    8.1630 N   0  0  0  0  0  0  0  0  0  0  0  0
   -0.9770    8.5050    7.3270 C   0  0  0  0  0  0  0  0  0  0  0  0
   -0.6820   10.0380   11.9590 H   0  0  0  0  0  0  0  0  0  0  0  0
    0.1340   10.9490   10.6990 H   0  0  0  0  0  0  0  0  0  0  0  0
    0.3920   11.3780   12.4070 H   0  0  0  0  0  0  0  0  0  0  0  0
    1.4970    9.1110   12.7590 H   0  0  0  0  0  0  0  0  0  0  0  0
    3.3610    9.7290   10.7880 H   0  0  0  0  0  0  0  0  0  0  0  0
    2.5210   11.2850   11.0000 H   0  0  0  0  0  0  0  0  0  0  0  0
    2.8550    9.3420   14.1990 H   0  0  0  0  0  0  0  0  0  0  0  0
    6.4910   13.6610   11.0860 H   0  0  0  0  0  0  0  0  0  0  0  0
    7.9040   11.3660   15.2130 H   0  0  0  0  0  0  0  0  0  0  0  0
    7.0660   12.7960   15.8330 H   0  0  0  0  0  0  0  0  0  0  0  0
   -0.1330    9.2820    9.4120 H   0  0  0  0  0  0  0  0  0  0  0  0
   -0.8270    8.8000   10.9710 H   0  0  0  0  0  0  0  0  0  0  0  0
   -2.4630    7.7590    8.5100 H   0  0  0  0  0  0  0  0  0  0  0  0
   -0.5090    9.2480    6.7190 H   0  0  0  0  0  0  0  0  0  0  0  0
  1  2  1  0  0  0  0
  1 20  1  0  0  0  0
  1 22  1  0  0  0  0
  2 23  1  1  0  0  0
  3  2  1  0  0  0  0
  3  4  1  0  0  0  0
  4  5  1  0  0  0  0
  5 26  1  0  0  0  0
  5  6  2  0  0  0  0
  7  8  1  0  0  0  0
  7  6  1  0  0  0  0
  8 13  1  6  0  0  0
  9  8  1  0  0  0  0
 10  9  2  0  0  0  0
 11 10  1  0  0  0  0
 11 12  1  0  0  0  0
 12  4  1  0  0  0  0
 12  7  2  0  0  0  0
 13 28  1  0  0  0  0
 13 29  1  0  0  0  0
 14  2  1  0  0  0  0
 15 14  1  0  0  0  0
 15 31  1  0  0  0  0
 16 15  1  0  0  0  0
 16 17  1  1  0  0  0
 18 32  1  0  0  0  0
 18 16  1  0  0  0  0
 19 18  1  0  0  0  0
 21  1  1  0  0  0  0
 24  3  1  0  0  0  0
 25  3  1  0  0  0  0
 27 10  1  0  0  0  0
 30 15  1  0  0  0  0
 33 19  1  0  0  0  0
M  END
>  <Pose>
1

>  <Score>
-7.20

$$$$

 OpenBabel10142114273D

 33 34  0  0  1  0  0  0  0  0999 V2000
    3.8240   10.8390   12.2270 C   0  0  0  0  0  0  0  0  0  0  0  0
    2.9970    9.8070   12.9940 C   0  0  2  0  0  0  0  0  0  0  0  0
    1.5810   10.3550   13.2420 C   0  0  0  0  0  0  0  0  0  0  0  0
    0.6210   10.2040   12.1630 N   0  0  0  0  0  0  0  0  0  0  0  0
   -0.2450   11.1260   11.6410 C   0  0  0  0  0  0  0  0  0  0  0  0
   -0.8820   10.6640   10.5840 N   0  0  0  0  0  0  0  0  0  0  0  0
   -0.4190    9.3780   10.4260 C   0  0  0  0  0  0  0  0  0  0  0  0
   -0.6870    8.3860    9.4700 C   0  0  2  0  0  0  0  0  0  0  0  0
   -0.0770    7.1850    9.5970 N   0  0  0  0  0  0  0  0  0  0  0  0
    0.7700    7.0060   10.6350 C   0  0  0  0  0  0  0  0  0  0  0  0
    1.1290    7.8880   11.5920 N   0  0  0  0  0  0  0  0  0  0  0  0
    0.4920    9.0580   11.4200 C   0  0  0  0  0  0  0  0  0  0  0  0
   -1.5280    8.5900    8.3990 N   0  0  0  0  0  0  0  0  0  0  0  0
    3.6240    9.5700   14.2580 O   0  0  0  0  0  0  0  0  0  0  0  0
    4.9830   10.0380   14.3420 C   0  0  0  0  0  0  0  0  0  0  0  0
    5.4390   10.9580   15.9290 P   0  0  1  0  0  0  0  0  0  0  0  0
    6.4520   10.0300   16.4270 O   0  0  0  0  0  0  0  0  0  0  0  0
    6.4980   12.1230   15.2680 N   0  0  0  0  0  0  0  0  0  0  0  0
    6.3920   12.3960   13.8340 C   0  0  0  0  0  0  0  0  0  0  0  0
    4.8220   10.4500   12.0010 H   0  0  0  0  0  0  0  0  0  0  0  0
    3.9710   11.7430   12.8300 H   0  0  0  0  0  0  0  0  0  0  0  0
    3.3430   11.1210   11.2860 H   0  0  0  0  0  0  0  0  0  0  0  0
    2.9240    8.8780   12.4160 H   0  0  0  0  0  0  0  0  0  0  0  0
    1.1370    9.8460   14.1070 H   0  0  0  0  0  0  0  0  0  0  0  0
    1.6330   11.4290   13.4590 H   0  0  0  0  0  0  0  0  0  0  0  0
   -0.3740   12.1240   12.0400 H   0  0  0  0  0  0  0  0  0  0  0  0
    1.2250    6.0220   10.7040 H   0  0  0  0  0  0  0  0  0  0  0  0
   -1.2220    9.2030    7.6560 H   0  0  0  0  0  0  0  0  0  0  0  0
   -2.3650    8.0360    8.3340 H   0  0  0  0  0  0  0  0  0  0  0  0
    5.1420   10.7220   13.5020 H   0  0  0  0  0  0  0  0  0  0  0  0
    5.6860    9.2020   14.2350 H   0  0  0  0  0  0  0  0  0  0  0  0
    7.4580   11.8730   15.4940 H   0  0  0  0  0  0  0  0  0  0  0  0
    6.2640   12.5940   12.7930 H   0  0  0  0  0  0  0  0  0  0  0  0
  1 21  1  0  0  0  0
  1  2  1  0  0  0  0
  2 23  1  6  0  0  0
  2  3  1  0  0  0  0
  2 14  1  0  0  0  0
  3 25  1  0  0  0  0
  3 24  1  0  0  0  0
  4  3  1  0  0  0  0
  5 26  1  0  0  0  0
  5  4  1  0  0  0  0
  6  5  2  0  0  0  0
  7  6  1  0  0  0  0
  7 12  2  0  0  0  0
  8 13  1  6  0  0  0
  8  9  1  0  0  0  0
  8  7  1  0  0  0  0
  9 10  2  0  0  0  0
 10 27  1  0  0  0  0
 10 11  1  0  0  0  0
 12 11  1  0  0  0  0
 12  4  1  0  0  0  0
 14 15  1  0  0  0  0
 15 16  1  0  0  0  0
 16 17  1  1  0  0  0
 18 32  1  0  0  0  0
 18 16  1  0  0  0  0
 19 18  1  0  0  0  0
 20  1  1  0  0  0  0
 22  1  1  0  0  0  0
 28 13  1  0  0  0  0
 29 13  1  0  0  0  0
 30 15  1  0  0  0  0
 31 15  1  0  0  0  0
 33 19  1  0  0  0  0
M  END
>  <Pose>
1

>  <Score>
-7.07

$$$$

 OpenBabel10142114273D

 33 34  0  0  1  0  0  0  0  0999 V2000
   -0.5300    4.9000    4.5560 C   0  0  0  0  0  0  0  0  0  0  0  0
    0.1110    5.5660    3.3390 C   0  0  2  0  0  0  0  0  0  0  0  0
   -0.2710    7.0560    3.3000 C   0  0  0  0  0  0  0  0  0  0  0  0
   -0.6860    7.6590    4.5530 N   0  0  0  0  0  0  0  0  0  0  0  0
   -1.9220    8.1110    4.9290 C   0  0  0  0  0  0  0  0  0  0  0  0
   -1.9500    8.4870    6.1920 N   0  0  0  0  0  0  0  0  0  0  0  0
   -0.6670    8.2870    6.6480 C   0  0  0  0  0  0  0  0  0  0  0  0
   -0.0720    8.4640    7.9070 C   0  0  2  0  0  0  0  0  0  0  0  0
    1.2460    8.1930    8.0420 N   0  0  0  0  0  0  0  0  0  0  0  0
    1.9220    7.7530    6.9570 C   0  0  0  0  0  0  0  0  0  0  0  0
    1.4550    7.5160    5.7130 N   0  0  0  0  0  0  0  0  0  0  0  0
    0.1460    7.8040    5.6360 C   0  0  0  0  0  0  0  0  0  0  0  0
   -0.7770    8.8830    9.0130 N   0  0  0  0  0  0  0  0  0  0  0  0
   -0.3910    4.9340    2.1570 O   0  0  0  0  0  0  0  0  0  0  0  0
    0.5710    4.1110    1.4720 C   0  0  0  0  0  0  0  0  0  0  0  0
    1.2400    4.8070   -0.1530 P   0  0  1  0  0  0  0  0  0  0  0  0
    1.4040    6.1970    0.2660 O   0  0  0  0  0  0  0  0  0  0  0  0
    2.8710    4.3270    0.0020 N   0  0  0  0  0  0  0  0  0  0  0  0
    3.1520    2.8920    0.0460 C   0  0  0  0  0  0  0  0  0  0  0  0
   -0.2340    3.8480    4.6270 H   0  0  0  0  0  0  0  0  0  0  0  0
   -1.6240    4.9110    4.4720 H   0  0  0  0  0  0  0  0  0  0  0  0
   -0.2460    5.4010    5.4850 H   0  0  0  0  0  0  0  0  0  0  0  0
    1.2030    5.4790    3.3920 H   0  0  0  0  0  0  0  0  0  0  0  0
    0.5880    7.6460    2.9570 H   0  0  0  0  0  0  0  0  0  0  0  0
   -1.1000    7.2070    2.5960 H   0  0  0  0  0  0  0  0  0  0  0  0
   -2.7790    8.1350    4.2690 H   0  0  0  0  0  0  0  0  0  0  0  0
    2.9800    7.5630    7.1100 H   0  0  0  0  0  0  0  0  0  0  0  0
   -0.2940    9.4260    9.7150 H   0  0  0  0  0  0  0  0  0  0  0  0
   -1.7730    8.7360    9.0310 H   0  0  0  0  0  0  0  0  0  0  0  0
    0.0820    3.1570    1.2500 H   0  0  0  0  0  0  0  0  0  0  0  0
    1.4330    3.9070    2.1200 H   0  0  0  0  0  0  0  0  0  0  0  0
    3.2790    4.7760    0.8170 H   0  0  0  0  0  0  0  0  0  0  0  0
    3.3220    1.8380    0.0410 H   0  0  0  0  0  0  0  0  0  0  0  0
  1 20  1  0  0  0  0
  1 22  1  0  0  0  0
  2 23  1  1  0  0  0
  2  1  1  0  0  0  0
  3  2  1  0  0  0  0
  3  4  1  0  0  0  0
  4  5  1  0  0  0  0
  4 12  1  0  0  0  0
  5  6  2  0  0  0  0
  6  7  1  0  0  0  0
  7  8  1  0  0  0  0
  8  9  1  0  0  0  0
  8 13  1  1  0  0  0
 10 27  1  0  0  0  0
 10  9  2  0  0  0  0
 11 10  1  0  0  0  0
 12 11  1  0  0  0  0
 12  7  2  0  0  0  0
 13 29  1  0  0  0  0
 13 28  1  0  0  0  0
 14  2  1  0  0  0  0
 15 31  1  0  0  0  0
 15 14  1  0  0  0  0
 16 18  1  0  0  0  0
 16 17  1  1  0  0  0
 16 15  1  0  0  0  0
 18 19  1  0  0  0  0
 18 32  1  0  0  0  0
 21  1  1  0  0  0  0
 24  3  1  0  0  0  0
 25  3  1  0  0  0  0
 26  5  1  0  0  0  0
 30 15  1  0  0  0  0
 33 19  1  0  0  0  0
M  END
>  <Pose>
1

>  <Score>
-7.02

$$$$

 OpenBabel10142114273D

 33 34  0  0  1  0  0  0  0  0999 V2000
    1.6490    8.6280   13.9410 C   0  0  0  0  0  0  0  0  0  0  0  0
    2.5090    9.8890   14.0290 C   0  0  2  0  0  0  0  0  0  0  0  0
    2.3790   10.6990   12.7270 C   0  0  0  0  0  0  0  0  0  0  0  0
    1.2200   10.4240   11.8970 N   0  0  0  0  0  0  0  0  0  0  0  0
    0.0190   11.0780   11.8440 C   0  0  0  0  0  0  0  0  0  0  0  0
   -0.7530   10.6200   10.8790 N   0  0  0  0  0  0  0  0  0  0  0  0
   -0.0240    9.6110   10.2920 C   0  0  0  0  0  0  0  0  0  0  0  0
   -0.2810    8.7690    9.1990 C   0  0  2  0  0  0  0  0  0  0  0  0
    0.6440    7.8400    8.8670 N   0  0  0  0  0  0  0  0  0  0  0  0
    1.7780    7.7780    9.6000 C   0  0  0  0  0  0  0  0  0  0  0  0
    2.1490    8.5490   10.6440 N   0  0  0  0  0  0  0  0  0  0  0  0
    1.1950    9.4490   10.9310 C   0  0  0  0  0  0  0  0  0  0  0  0
   -1.4270    8.8620    8.4400 N   0  0  0  0  0  0  0  0  0  0  0  0
    3.8760    9.4980   14.1890 O   0  0  0  0  0  0  0  0  0  0  0  0
    4.8230   10.5660   14.0010 C   0  0  0  0  0  0  0  0  0  0  0  0
    5.8460   11.0350   15.5200 P   0  0  1  0  0  0  0  0  0  0  0  0
    6.9950   10.1670   15.2750 O   0  0  0  0  0  0  0  0  0  0  0  0
    6.5300   12.4890   14.9430 N   0  0  0  0  0  0  0  0  0  0  0  0
    6.5930   12.6780   13.4930 C   0  0  0  0  0  0  0  0  0  0  0  0
    1.6930    8.0600   14.8750 H   0  0  0  0  0  0  0  0  0  0  0  0
    2.0200    7.9610   13.1530 H   0  0  0  0  0  0  0  0  0  0  0  0
    0.6030    8.8680   13.7320 H   0  0  0  0  0  0  0  0  0  0  0  0
    2.1810   10.5110   14.8700 H   0  0  0  0  0  0  0  0  0  0  0  0
    2.3250   11.7690   12.9650 H   0  0  0  0  0  0  0  0  0  0  0  0
    3.2590   10.5270   12.0950 H   0  0  0  0  0  0  0  0  0  0  0  0
   -0.2530   11.8890   12.5060 H   0  0  0  0  0  0  0  0  0  0  0  0
    2.4840    7.0080    9.3060 H   0  0  0  0  0  0  0  0  0  0  0  0
   -2.1820    8.2170    8.6280 H   0  0  0  0  0  0  0  0  0  0  0  0
   -1.5210    9.6370    7.8070 H   0  0  0  0  0  0  0  0  0  0  0  0
    4.2550   11.4510   13.6950 H   0  0  0  0  0  0  0  0  0  0  0  0
    5.5260   10.3200   13.1950 H   0  0  0  0  0  0  0  0  0  0  0  0
    7.4580   12.6070   15.3390 H   0  0  0  0  0  0  0  0  0  0  0  0
    6.5930   12.7960   12.4320 H   0  0  0  0  0  0  0  0  0  0  0  0
  1  2  1  0  0  0  0
  1 20  1  0  0  0  0
  2 14  1  0  0  0  0
  2 23  1  1  0  0  0
  3 24  1  0  0  0  0
  3  2  1  0  0  0  0
  4  3  1  0  0  0  0
  5  4  1  0  0  0  0
  5 26  1  0  0  0  0
  6  5  2  0  0  0  0
  7  6  1  0  0  0  0
  7 12  2  0  0  0  0
  8 13  1  6  0  0  0
  8  7  1  0  0  0  0
  9  8  1  0  0  0  0
  9 10  2  0  0  0  0
 10 11  1  0  0  0  0
 11 12  1  0  0  0  0
 12  4  1  0  0  0  0
 13 28  1  0  0  0  0
 15 14  1  0  0  0  0
 15 16  1  0  0  0  0
 16 17  1  6  0  0  0
 18 32  1  0  0  0  0
 18 16  1  0  0  0  0
 19 18  1  0  0  0  0
 21  1  1  0  0  0  0
 22  1  1  0  0  0  0
 25  3  1  0  0  0  0
 27 10  1  0  0  0  0
 29 13  1  0  0  0  0
 30 15  1  0  0  0  0
 31 15  1  0  0  0  0
 33 19  1  0  0  0  0
M  END
>  <Pose>
1

>  <Score>
-6.94

$$$$

 OpenBabel10142114273D

 33 34  0  0  1  0  0  0  0  0999 V2000
    0.7850    8.4240   12.4490 C   0  0  0  0  0  0  0  0  0  0  0  0
    2.2160    8.7320   12.0120 C   0  0  2  0  0  0  0  0  0  0  0  0
    2.4040   10.2530   11.8780 C   0  0  0  0  0  0  0  0  0  0  0  0
    3.6520   10.8050   12.3720 N   0  0  0  0  0  0  0  0  0  0  0  0
    4.5050   11.6900   11.7700 C   0  0  0  0  0  0  0  0  0  0  0  0
    5.4830   12.0610   12.5730 N   0  0  0  0  0  0  0  0  0  0  0  0
    5.2610   11.3700   13.7420 C   0  0  0  0  0  0  0  0  0  0  0  0
    5.9290   11.3590   14.9760 C   0  0  2  0  0  0  0  0  0  0  0  0
    5.4730   10.5390   15.9500 N   0  0  0  0  0  0  0  0  0  0  0  0
    4.3870    9.7780   15.6880 C   0  0  0  0  0  0  0  0  0  0  0  0
    3.6470    9.7260   14.5590 N   0  0  0  0  0  0  0  0  0  0  0  0
    4.1460   10.5550   13.6280 C   0  0  0  0  0  0  0  0  0  0  0  0
    7.0160   12.1620   15.2430 N   0  0  0  0  0  0  0  0  0  0  0  0
    2.4410    8.1290   10.7330 O   0  0  0  0  0  0  0  0  0  0  0  0
    1.2380    7.8030   10.0130 C   0  0  0  0  0  0  0  0  0  0  0  0
    0.2430    9.2750    9.3660 P   0  0  1  0  0  0  0  0  0  0  0  0
    0.8840    9.4030    8.0590 O   0  0  0  0  0  0  0  0  0  0  0  0
   -1.1590    8.4460    8.8550 N   0  0  0  0  0  0  0  0  0  0  0  0
   -1.3280    8.2250    7.4190 C   0  0  0  0  0  0  0  0  0  0  0  0
    0.6430    7.3480   12.5940 H   0  0  0  0  0  0  0  0  0  0  0  0
    0.0690    8.7320   11.6770 H   0  0  0  0  0  0  0  0  0  0  0  0
    0.5310    8.9330   13.3830 H   0  0  0  0  0  0  0  0  0  0  0  0
    2.9280    8.3480   12.7530 H   0  0  0  0  0  0  0  0  0  0  0  0
    2.3540   10.5360   10.8190 H   0  0  0  0  0  0  0  0  0  0  0  0
    1.6020   10.7730   12.4160 H   0  0  0  0  0  0  0  0  0  0  0  0
    4.3770   12.0560   10.7600 H   0  0  0  0  0  0  0  0  0  0  0  0
    4.0670    9.1250   16.4940 H   0  0  0  0  0  0  0  0  0  0  0  0
    7.5120   12.0270   16.1130 H   0  0  0  0  0  0  0  0  0  0  0  0
    7.3500   12.7730   14.5170 H   0  0  0  0  0  0  0  0  0  0  0  0
    0.5930    7.2400   10.6970 H   0  0  0  0  0  0  0  0  0  0  0  0
    1.4650    7.1590    9.1540 H   0  0  0  0  0  0  0  0  0  0  0  0
   -1.9820    8.9160    9.2230 H   0  0  0  0  0  0  0  0  0  0  0  0
   -1.4020    8.0520    6.3670 H   0  0  0  0  0  0  0  0  0  0  0  0
  1 20  1  0  0  0  0
  1 22  1  0  0  0  0
  2  1  1  0  0  0  0
  2 23  1  1  0  0  0
  3  2  1  0  0  0  0
  3  4  1  0  0  0  0
  3 25  1  0  0  0  0
  4 12  1  0  0  0  0
  5  4  1  0  0  0  0
  5  6  2  0  0  0  0
  6  7  1  0  0  0  0
  7  8  1  0  0  0  0
  8 13  1  1  0  0  0
  8  9  1  0  0  0  0
 10  9  2  0  0  0  0
 10 27  1  0  0  0  0
 11 10  1  0  0  0  0
 12  7  2  0  0  0  0
 12 11  1  0  0  0  0
 13 28  1  0  0  0  0
 14  2  1  0  0  0  0
 15 30  1  0  0  0  0
 15 14  1  0  0  0  0
 16 17  1  6  0  0  0
 16 15  1  0  0  0  0
 18 32  1  0  0  0  0
 18 16  1  0  0  0  0
 19 18  1  0  0  0  0
 21  1  1  0  0  0  0
 24  3  1  0  0  0  0
 26  5  1  0  0  0  0
 29 13  1  0  0  0  0
 31 15  1  0  0  0  0
 33 19  1  0  0  0  0
M  END
>  <Pose>
1

>  <Score>
-6.89

$$$$

 OpenBabel10142114273D

 33 34  0  0  1  0  0  0  0  0999 V2000
    1.1250    7.7710   12.1830 C   0  0  0  0  0  0  0  0  0  0  0  0
    2.2020    8.8160   11.8940 C   0  0  2  0  0  0  0  0  0  0  0  0
    2.9350    9.1820   13.1960 C   0  0  0  0  0  0  0  0  0  0  0  0
    3.9950   10.1690   13.0960 N   0  0  0  0  0  0  0  0  0  0  0  0
    4.3400   10.9640   12.0380 C   0  0  0  0  0  0  0  0  0  0  0  0
    5.2830   11.8290   12.3540 N   0  0  0  0  0  0  0  0  0  0  0  0
    5.5730   11.5690   13.6730 C   0  0  0  0  0  0  0  0  0  0  0  0
    6.4590   12.1670   14.5840 C   0  0  2  0  0  0  0  0  0  0  0  0
    6.5360   11.6620   15.8360 N   0  0  0  0  0  0  0  0  0  0  0  0
    5.7470   10.6110   16.1500 C   0  0  0  0  0  0  0  0  0  0  0  0
    4.8410    9.9760   15.3760 N   0  0  0  0  0  0  0  0  0  0  0  0
    4.8080   10.5150   14.1470 C   0  0  0  0  0  0  0  0  0  0  0  0
    7.2360   13.2570   14.2610 N   0  0  0  0  0  0  0  0  0  0  0  0
    1.5690    9.9920   11.3790 O   0  0  0  0  0  0  0  0  0  0  0  0
    0.1820    9.8140   11.0370 C   0  0  0  0  0  0  0  0  0  0  0  0
   -0.1580    9.1770    9.2890 P   0  0  1  0  0  0  0  0  0  0  0  0
    1.0450    8.3650    9.1240 O   0  0  0  0  0  0  0  0  0  0  0  0
   -1.2390    7.9120    9.6730 N   0  0  0  0  0  0  0  0  0  0  0  0
   -0.9920    6.6050    9.0640 C   0  0  0  0  0  0  0  0  0  0  0  0
    0.6220    7.4630   11.2610 H   0  0  0  0  0  0  0  0  0  0  0  0
    0.3500    8.1840   12.8390 H   0  0  0  0  0  0  0  0  0  0  0  0
    1.5460    6.8800   12.6590 H   0  0  0  0  0  0  0  0  0  0  0  0
    2.9290    8.4190   11.1750 H   0  0  0  0  0  0  0  0  0  0  0  0
    2.2170    9.5910   13.9180 H   0  0  0  0  0  0  0  0  0  0  0  0
    3.3910    8.2830   13.6300 H   0  0  0  0  0  0  0  0  0  0  0  0
    3.8750   10.9010   11.0630 H   0  0  0  0  0  0  0  0  0  0  0  0
    5.8540   10.2300   17.1610 H   0  0  0  0  0  0  0  0  0  0  0  0
    7.4410   13.4310   13.2870 H   0  0  0  0  0  0  0  0  0  0  0  0
    7.4770   13.9070   14.9900 H   0  0  0  0  0  0  0  0  0  0  0  0
   -0.3040   10.7910   11.1370 H   0  0  0  0  0  0  0  0  0  0  0  0
   -0.3020    9.1220   11.7380 H   0  0  0  0  0  0  0  0  0  0  0  0
   -2.1900    8.2060    9.4660 H   0  0  0  0  0  0  0  0  0  0  0  0
   -0.7620    5.6570    8.6290 H   0  0  0  0  0  0  0  0  0  0  0  0
  1 22  1  0  0  0  0
  1 21  1  0  0  0  0
  2 23  1  6  0  0  0
  2  1  1  0  0  0  0
  2  3  1  0  0  0  0
  3 25  1  0  0  0  0
  3 24  1  0  0  0  0
  4  3  1  0  0  0  0
  4 12  1  0  0  0  0
  5  6  2  0  0  0  0
  5  4  1  0  0  0  0
  6  7  1  0  0  0  0
  7 12  2  0  0  0  0
  7  8  1  0  0  0  0
  8 13  1  1  0  0  0
  8  9  1  0  0  0  0
  9 10  2  0  0  0  0
 10 27  1  0  0  0  0
 11 10  1  0  0  0  0
 12 11  1  0  0  0  0
 13 29  1  0  0  0  0
 14  2  1  0  0  0  0
 15 30  1  0  0  0  0
 15 14  1  0  0  0  0
 15 31  1  0  0  0  0
 16 17  1  1  0  0  0
 16 18  1  0  0  0  0
 16 15  1  0  0  0  0
 19 18  1  0  0  0  0
 20  1  1  0  0  0  0
 26  5  1  0  0  0  0
 28 13  1  0  0  0  0
 32 18  1  0  0  0  0
 33 19  1  0  0  0  0
M  END
>  <Pose>
1

>  <Score>
-6.88

$$$$

 OpenBabel10142114273D

 33 34  0  0  1  0  0  0  0  0999 V2000
   -0.9350    9.1790    9.4100 C   0  0  0  0  0  0  0  0  0  0  0  0
    0.5670    9.3970    9.2250 C   0  0  2  0  0  0  0  0  0  0  0  0
    0.9010    9.4690    7.7250 C   0  0  0  0  0  0  0  0  0  0  0  0
    0.6610    8.2710    6.9410 N   0  0  0  0  0  0  0  0  0  0  0  0
    0.5900    6.9680    7.3520 C   0  0  0  0  0  0  0  0  0  0  0  0
    0.2340    6.1580    6.3750 N   0  0  0  0  0  0  0  0  0  0  0  0
    0.0850    6.9740    5.2770 C   0  0  0  0  0  0  0  0  0  0  0  0
   -0.3090    6.7190    3.9550 C   0  0  2  0  0  0  0  0  0  0  0  0
   -0.3410    7.7490    3.0790 N   0  0  0  0  0  0  0  0  0  0  0  0
   -0.0000    8.9780    3.5280 C   0  0  0  0  0  0  0  0  0  0  0  0
    0.3620    9.3500    4.7750 N   0  0  0  0  0  0  0  0  0  0  0  0
    0.3790    8.2900    5.5980 C   0  0  0  0  0  0  0  0  0  0  0  0
   -0.6840    5.4680    3.5160 N   0  0  0  0  0  0  0  0  0  0  0  0
    1.2610    8.2830    9.7960 O   0  0  0  0  0  0  0  0  0  0  0  0
    1.8460    8.5470   11.0850 C   0  0  0  0  0  0  0  0  0  0  0  0
    1.6490    7.1780   12.3730 P   0  0  1  0  0  0  0  0  0  0  0  0
    2.8900    7.4030   13.1110 O   0  0  0  0  0  0  0  0  0  0  0  0
    0.5920    7.9760   13.4510 N   0  0  0  0  0  0  0  0  0  0  0  0
    1.1720    8.5460   14.6680 C   0  0  0  0  0  0  0  0  0  0  0  0
   -1.2010    9.1700   10.4720 H   0  0  0  0  0  0  0  0  0  0  0  0
   -1.2380    8.2070    9.0040 H   0  0  0  0  0  0  0  0  0  0  0  0
   -1.5180    9.9620    8.9160 H   0  0  0  0  0  0  0  0  0  0  0  0
    0.8740   10.3340    9.7050 H   0  0  0  0  0  0  0  0  0  0  0  0
    0.3010   10.2570    7.2530 H   0  0  0  0  0  0  0  0  0  0  0  0
    1.9630    9.7150    7.5950 H   0  0  0  0  0  0  0  0  0  0  0  0
    0.7850    6.6470    8.3670 H   0  0  0  0  0  0  0  0  0  0  0  0
   -0.0260    9.7710    2.7870 H   0  0  0  0  0  0  0  0  0  0  0  0
   -1.6690    5.2650    3.4230 H   0  0  0  0  0  0  0  0  0  0  0  0
    0.0320    4.8380    3.1940 H   0  0  0  0  0  0  0  0  0  0  0  0
    1.3650    9.4490   11.4790 H   0  0  0  0  0  0  0  0  0  0  0  0
    2.9190    8.7520   10.9860 H   0  0  0  0  0  0  0  0  0  0  0  0
   -0.1700    7.3510   13.7010 H   0  0  0  0  0  0  0  0  0  0  0  0
    1.6340    8.9780   15.5280 H   0  0  0  0  0  0  0  0  0  0  0  0
  1 20  1  0  0  0  0
  2  1  1  0  0  0  0
  2 23  1  1  0  0  0
  2 14  1  0  0  0  0
  3  2  1  0  0  0  0
  4  5  1  0  0  0  0
  4  3  1  0  0  0  0
  5 26  1  0  0  0  0
  6  5  2  0  0  0  0
  7 12  2  0  0  0  0
  7  6  1  0  0  0  0
  8 13  1  1  0  0  0
  8  7  1  0  0  0  0
  9 10  2  0  0  0  0
  9  8  1  0  0  0  0
 10 11  1  0  0  0  0
 11 12  1  0  0  0  0
 12  4  1  0  0  0  0
 14 15  1  0  0  0  0
 15 30  1  0  0  0  0
 15 16  1  0  0  0  0
 16 17  1  1  0  0  0
 16 18  1  0  0  0  0
 18 32  1  0  0  0  0
 18 19  1  0  0  0  0
 19 33  1  0  0  0  0
 21  1  1  0  0  0  0
 22  1  1  0  0  0  0
 24  3  1  0  0  0  0
 25  3  1  0  0  0  0
 27 10  1  0  0  0  0
 28 13  1  0  0  0  0
 29 13  1  0  0  0  0
 31 15  1  0  0  0  0
M  END
>  <Pose>
1

>  <Score>
-6.88

$$$$

 OpenBabel10142114273D

 33 34  0  0  1  0  0  0  0  0999 V2000
    1.7050    7.2700   11.8930 C   0  0  0  0  0  0  0  0  0  0  0  0
    2.7100    8.3740   11.5680 C   0  0  2  0  0  0  0  0  0  0  0  0
    2.4400    9.6010   12.4560 C   0  0  0  0  0  0  0  0  0  0  0  0
    3.3780    9.8480   13.5370 N   0  0  0  0  0  0  0  0  0  0  0  0
    3.4940    9.2120   14.7420 C   0  0  0  0  0  0  0  0  0  0  0  0
    4.5440    9.6280   15.4230 N   0  0  0  0  0  0  0  0  0  0  0  0
    5.1220   10.5890   14.6270 C   0  0  0  0  0  0  0  0  0  0  0  0
    6.2770   11.3730   14.7770 C   0  0  2  0  0  0  0  0  0  0  0  0
    6.5810   12.2670   13.8090 N   0  0  0  0  0  0  0  0  0  0  0  0
    5.7610   12.3520   12.7380 C   0  0  0  0  0  0  0  0  0  0  0  0
    4.6490   11.6350   12.4690 N   0  0  0  0  0  0  0  0  0  0  0  0
    4.3930   10.7680   13.4620 C   0  0  0  0  0  0  0  0  0  0  0  0
    7.1220   11.2570   15.8590 N   0  0  0  0  0  0  0  0  0  0  0  0
    2.5410    8.7550   10.1980 O   0  0  0  0  0  0  0  0  0  0  0  0
    1.5650    7.9730    9.4840 C   0  0  0  0  0  0  0  0  0  0  0  0
    0.6440    8.8750    8.1010 P   0  0  1  0  0  0  0  0  0  0  0  0
    1.0410   10.2400    8.4400 O   0  0  0  0  0  0  0  0  0  0  0  0
    1.7560    8.6210    6.8300 N   0  0  0  0  0  0  0  0  0  0  0  0
    1.2140    8.2780    5.5150 C   0  0  0  0  0  0  0  0  0  0  0  0
    1.9090    6.3700   11.3030 H   0  0  0  0  0  0  0  0  0  0  0  0
    0.6860    7.5860   11.6390 H   0  0  0  0  0  0  0  0  0  0  0  0
    1.7330    7.0000   12.9530 H   0  0  0  0  0  0  0  0  0  0  0  0
    3.7320    8.0200   11.7500 H   0  0  0  0  0  0  0  0  0  0  0  0
    2.4530   10.5100   11.8400 H   0  0  0  0  0  0  0  0  0  0  0  0
    1.4510    9.5110   12.9210 H   0  0  0  0  0  0  0  0  0  0  0  0
    2.8140    8.4440   15.0850 H   0  0  0  0  0  0  0  0  0  0  0  0
    6.0370   13.0930   11.9940 H   0  0  0  0  0  0  0  0  0  0  0  0
    8.1180   11.3110   15.6990 H   0  0  0  0  0  0  0  0  0  0  0  0
    6.7200   11.2380   16.7810 H   0  0  0  0  0  0  0  0  0  0  0  0
    0.8230    7.6360   10.2140 H   0  0  0  0  0  0  0  0  0  0  0  0
    2.0330    7.0850    9.0410 H   0  0  0  0  0  0  0  0  0  0  0  0
    2.4330    7.9170    7.1100 H   0  0  0  0  0  0  0  0  0  0  0  0
    0.7810    8.0630    4.5630 H   0  0  0  0  0  0  0  0  0  0  0  0
  1 22  1  0  0  0  0
  2 23  1  1  0  0  0
  2  1  1  0  0  0  0
  2  3  1  0  0  0  0
  3 25  1  0  0  0  0
  3  4  1  0  0  0  0
  4  5  1  0  0  0  0
  5 26  1  0  0  0  0
  5  6  2  0  0  0  0
  7  8  1  0  0  0  0
  7  6  1  0  0  0  0
  8 13  1  6  0  0  0
  9  8  1  0  0  0  0
 10  9  2  0  0  0  0
 11 10  1  0  0  0  0
 11 12  1  0  0  0  0
 12  4  1  0  0  0  0
 12  7  2  0  0  0  0
 13 29  1  0  0  0  0
 14  2  1  0  0  0  0
 15 14  1  0  0  0  0
 15 30  1  0  0  0  0
 16 17  1  1  0  0  0
 16 15  1  0  0  0  0
 18 32  1  0  0  0  0
 18 16  1  0  0  0  0
 19 18  1  0  0  0  0
 20  1  1  0  0  0  0
 21  1  1  0  0  0  0
 24  3  1  0  0  0  0
 27 10  1  0  0  0  0
 28 13  1  0  0  0  0
 31 15  1  0  0  0  0
 33 19  1  0  0  0  0
M  END
>  <Pose>
1

>  <Score>
-6.83

$$$$
