
 OpenBabel10142114273D

 43 46  0  0  1  0  0  0  0  0999 V2000
    0.4380    4.8420    1.3460 C   0  0  0  0  0  0  0  0  0  0  0  0
   -0.6910    3.9660    0.8530 C   0  0  0  0  0  0  0  0  0  0  0  0
   -0.8610    2.9250    1.8230 O   0  0  0  0  0  0  0  0  0  0  0  0
   -0.1910    3.3320    3.0300 C   0  0  0  0  0  0  0  0  0  0  0  0
    0.2760    4.7820    2.8490 C   0  0  2  0  0  0  0  0  0  0  0  0
   -0.7280    5.7110    3.3610 N   0  0  0  0  0  0  0  0  0  0  0  0
   -0.3110    6.8710    4.0020 C   0  0  0  0  0  0  0  0  0  0  0  0
   -0.0240    6.8820    5.3810 C   0  0  0  0  0  0  0  0  0  0  0  0
    0.4040    8.0820    5.9240 C   0  0  0  0  0  0  0  0  0  0  0  0
    0.5430    9.2590    5.2990 N   0  0  0  0  0  0  0  0  0  0  0  0
    0.2360    9.1400    3.9910 C   0  0  0  0  0  0  0  0  0  0  0  0
   -0.1470    8.0330    3.3190 N   0  0  0  0  0  0  0  0  0  0  0  0
    0.6730    7.8010    7.2360 N   0  0  0  0  0  0  0  0  0  0  0  0
    0.4140    6.4710    7.4330 C   0  0  0  0  0  0  0  0  0  0  0  0
   -0.0350    5.8890    6.3390 N   0  0  0  0  0  0  0  0  0  0  0  0
    1.2070    8.7600    8.1850 C   0  0  1  0  0  0  0  0  0  0  0  0
    0.1330    9.4820    9.0100 C   0  0  1  0  0  0  0  0  0  0  0  0
    0.0120    8.5680   10.2160 C   0  0  1  0  0  0  0  0  0  0  0  0
    1.4670    8.1650   10.4380 C   0  0  2  0  0  0  0  0  0  0  0  0
    2.0620    8.0670    9.1310 O   0  0  0  0  0  0  0  0  0  0  0  0
    1.5950    6.8550   11.2130 C   0  0  0  0  0  0  0  0  0  0  0  0
    2.9380    6.6020   11.6040 O   0  0  0  0  0  0  0  0  0  0  0  0
   -0.5450    9.2070   11.3550 O   0  0  0  0  0  0  0  0  0  0  0  0
    0.5560   10.7820    9.4690 O   0  0  0  0  0  0  0  0  0  0  0  0
    0.4130    5.8350    0.8930 H   0  0  0  0  0  0  0  0  0  0  0  0
    1.3960    4.3800    1.0760 H   0  0  0  0  0  0  0  0  0  0  0  0
   -0.4760    3.5240   -0.1240 H   0  0  0  0  0  0  0  0  0  0  0  0
   -1.6300    4.5250    0.7840 H   0  0  0  0  0  0  0  0  0  0  0  0
    0.6670    2.6640    3.1590 H   0  0  0  0  0  0  0  0  0  0  0  0
   -0.8680    3.1890    3.8780 H   0  0  0  0  0  0  0  0  0  0  0  0
    1.2190    4.9440    3.3840 H   0  0  0  0  0  0  0  0  0  0  0  0
   -1.5590    5.3090    3.7900 H   0  0  0  0  0  0  0  0  0  0  0  0
    0.3060   10.0480    3.4000 H   0  0  0  0  0  0  0  0  0  0  0  0
    0.5780    5.9720    8.3800 H   0  0  0  0  0  0  0  0  0  0  0  0
    1.8380    9.4580    7.6230 H   0  0  0  0  0  0  0  0  0  0  0  0
   -0.8220    9.6240    8.4970 H   0  0  0  0  0  0  0  0  0  0  0  0
   -0.6020    7.6950    9.9670 H   0  0  0  0  0  0  0  0  0  0  0  0
    1.9950    8.9500   10.9950 H   0  0  0  0  0  0  0  0  0  0  0  0
    1.2530    6.0170   10.5960 H   0  0  0  0  0  0  0  0  0  0  0  0
    0.9620    6.8620   12.1070 H   0  0  0  0  0  0  0  0  0  0  0  0
    3.4650    6.4100   10.8020 H   0  0  0  0  0  0  0  0  0  0  0  0
   -1.5200    9.1380   11.2610 H   0  0  0  0  0  0  0  0  0  0  0  0
   -0.1680   11.4220    9.3370 H   0  0  0  0  0  0  0  0  0  0  0  0
  1  5  1  0  0  0  0
  2  1  1  0  0  0  0
  2  3  1  0  0  0  0
  3  4  1  0  0  0  0
  4 29  1  0  0  0  0
  4 30  1  0  0  0  0
  5  4  1  0  0  0  0
  5  6  1  0  0  0  0
  5 31  1  1  0  0  0
  6 32  1  0  0  0  0
  6  7  1  0  0  0  0
  7  8  1  0  0  0  0
  8  9  2  0  0  0  0
  8 15  1  0  0  0  0
  9 13  1  0  0  0  0
 10  9  1  0  0  0  0
 11 10  2  0  0  0  0
 12 11  1  0  0  0  0
 12  7  2  0  0  0  0
 13 14  1  0  0  0  0
 13 16  1  0  0  0  0
 14 34  1  0  0  0  0
 15 14  2  0  0  0  0
 16 35  1  6  0  0  0
 16 17  1  0  0  0  0
 16 20  1  0  0  0  0
 17 36  1  6  0  0  0
 17 24  1  0  0  0  0
 17 18  1  0  0  0  0
 18 37  1  6  0  0  0
 18 19  1  0  0  0  0
 18 23  1  0  0  0  0
 19 38  1  1  0  0  0
 19 21  1  0  0  0  0
 20 19  1  0  0  0  0
 21 22  1  0  0  0  0
 21 40  1  0  0  0  0
 25  1  1  0  0  0  0
 26  1  1  0  0  0  0
 27  2  1  0  0  0  0
 28  2  1  0  0  0  0
 33 11  1  0  0  0  0
 39 21  1  0  0  0  0
 41 22  1  0  0  0  0
 42 23  1  0  0  0  0
 43 24  1  0  0  0  0
M  END
>  <Pose>
1

>  <Score>
-7.75

$$$$

 OpenBabel10142114273D

 43 46  0  0  1  0  0  0  0  0999 V2000
    5.6850   10.5690   14.8900 C   0  0  0  0  0  0  0  0  0  0  0  0
    5.4410   11.9480   15.4560 C   0  0  0  0  0  0  0  0  0  0  0  0
    5.4400   12.8570   14.3470 O   0  0  0  0  0  0  0  0  0  0  0  0
    5.2780   12.0850   13.1440 C   0  0  0  0  0  0  0  0  0  0  0  0
    4.9940   10.6320   13.5450 C   0  0  2  0  0  0  0  0  0  0  0  0
    3.5540   10.3950   13.6220 N   0  0  0  0  0  0  0  0  0  0  0  0
    3.0280    9.2410   13.0550 C   0  0  0  0  0  0  0  0  0  0  0  0
    2.1670    9.3000   11.9420 C   0  0  0  0  0  0  0  0  0  0  0  0
    1.7100    8.0940   11.4360 C   0  0  0  0  0  0  0  0  0  0  0  0
    1.9590    6.8650   11.9060 N   0  0  0  0  0  0  0  0  0  0  0  0
    2.7820    6.9220   12.9730 C   0  0  0  0  0  0  0  0  0  0  0  0
    3.3380    8.0130   13.5420 N   0  0  0  0  0  0  0  0  0  0  0  0
    0.9650    8.4310   10.3390 N   0  0  0  0  0  0  0  0  0  0  0  0
    1.0030    9.7930   10.2180 C   0  0  0  0  0  0  0  0  0  0  0  0
    1.6990   10.3550   11.1850 N   0  0  0  0  0  0  0  0  0  0  0  0
    0.3310    7.4700    9.4550 C   0  0  1  0  0  0  0  0  0  0  0  0
   -1.1120    7.8300    9.0780 C   0  0  1  0  0  0  0  0  0  0  0  0
   -0.9010    8.6420    7.8120 C   0  0  1  0  0  0  0  0  0  0  0  0
    0.2380    7.8770    7.1480 C   0  0  2  0  0  0  0  0  0  0  0  0
    1.0800    7.3990    8.2140 O   0  0  0  0  0  0  0  0  0  0  0  0
    1.0210    8.7400    6.1600 C   0  0  0  0  0  0  0  0  0  0  0  0
    2.3670    8.3020    6.0260 O   0  0  0  0  0  0  0  0  0  0  0  0
   -2.0540    8.7100    6.9860 O   0  0  0  0  0  0  0  0  0  0  0  0
   -1.9110    6.6760    8.7460 O   0  0  0  0  0  0  0  0  0  0  0  0
    5.3540    9.7830   15.5700 H   0  0  0  0  0  0  0  0  0  0  0  0
    6.7610   10.4320   14.7250 H   0  0  0  0  0  0  0  0  0  0  0  0
    6.2140   12.2450   16.1710 H   0  0  0  0  0  0  0  0  0  0  0  0
    4.4660   12.0120   15.9490 H   0  0  0  0  0  0  0  0  0  0  0  0
    6.2210   12.1550   12.5910 H   0  0  0  0  0  0  0  0  0  0  0  0
    4.4900   12.5380   12.5340 H   0  0  0  0  0  0  0  0  0  0  0  0
    5.4300    9.9460   12.8110 H   0  0  0  0  0  0  0  0  0  0  0  0
    2.9420   11.1990   13.5020 H   0  0  0  0  0  0  0  0  0  0  0  0
    3.0330    5.9710   13.4340 H   0  0  0  0  0  0  0  0  0  0  0  0
    0.5230   10.3280    9.4070 H   0  0  0  0  0  0  0  0  0  0  0  0
    0.4010    6.4880    9.9370 H   0  0  0  0  0  0  0  0  0  0  0  0
   -1.6630    8.3850    9.8430 H   0  0  0  0  0  0  0  0  0  0  0  0
   -0.5910    9.6620    8.0670 H   0  0  0  0  0  0  0  0  0  0  0  0
   -0.1560    7.0050    6.6090 H   0  0  0  0  0  0  0  0  0  0  0  0
    1.0300    9.7830    6.4960 H   0  0  0  0  0  0  0  0  0  0  0  0
    0.5470    8.7360    5.1720 H   0  0  0  0  0  0  0  0  0  0  0  0
    2.5380    7.6160    6.7010 H   0  0  0  0  0  0  0  0  0  0  0  0
   -2.7730    8.2580    7.4770 H   0  0  0  0  0  0  0  0  0  0  0  0
   -2.8350    6.9540    8.6000 H   0  0  0  0  0  0  0  0  0  0  0  0
  1  2  1  0  0  0  0
  1 25  1  0  0  0  0
  2 28  1  0  0  0  0
  2 27  1  0  0  0  0
  3  2  1  0  0  0  0
  4  5  1  0  0  0  0
  4  3  1  0  0  0  0
  5 31  1  6  0  0  0
  5  6  1  0  0  0  0
  5  1  1  0  0  0  0
  7 12  2  0  0  0  0
  7  6  1  0  0  0  0
  8  7  1  0  0  0  0
  9 10  1  0  0  0  0
  9  8  2  0  0  0  0
 10 11  2  0  0  0  0
 11 33  1  0  0  0  0
 11 12  1  0  0  0  0
 13  9  1  0  0  0  0
 14 13  1  0  0  0  0
 14 15  2  0  0  0  0
 15  8  1  0  0  0  0
 16 35  1  1  0  0  0
 16 13  1  0  0  0  0
 17 16  1  0  0  0  0
 17 36  1  1  0  0  0
 18 37  1  1  0  0  0
 18 17  1  0  0  0  0
 19 38  1  6  0  0  0
 19 18  1  0  0  0  0
 19 20  1  0  0  0  0
 20 16  1  0  0  0  0
 21 39  1  0  0  0  0
 21 19  1  0  0  0  0
 22 21  1  0  0  0  0
 22 41  1  0  0  0  0
 23 42  1  0  0  0  0
 23 18  1  0  0  0  0
 24 17  1  0  0  0  0
 26  1  1  0  0  0  0
 29  4  1  0  0  0  0
 30  4  1  0  0  0  0
 32  6  1  0  0  0  0
 34 14  1  0  0  0  0
 40 21  1  0  0  0  0
 43 24  1  0  0  0  0
M  END
>  <Pose>
2

>  <Score>
-7.23

$$$$

 OpenBabel10142114273D

 43 46  0  0  1  0  0  0  0  0999 V2000
    1.1060    7.7980    6.0830 C   0  0  0  0  0  0  0  0  0  0  0  0
    0.0720    8.4970    5.2310 C   0  0  0  0  0  0  0  0  0  0  0  0
   -1.1730    8.4100    5.9350 O   0  0  0  0  0  0  0  0  0  0  0  0
   -0.8840    8.0600    7.3010 C   0  0  0  0  0  0  0  0  0  0  0  0
    0.6380    8.0980    7.4900 C   0  0  2  0  0  0  0  0  0  0  0  0
    1.0610    9.4100    7.9750 N   0  0  0  0  0  0  0  0  0  0  0  0
    0.6490    9.8290    9.2340 C   0  0  0  0  0  0  0  0  0  0  0  0
    1.1980    9.2720   10.4050 C   0  0  0  0  0  0  0  0  0  0  0  0
    0.7360    9.7690   11.6130 C   0  0  0  0  0  0  0  0  0  0  0  0
   -0.2080   10.7000   11.8060 N   0  0  0  0  0  0  0  0  0  0  0  0
   -0.6700   11.1590   10.6260 C   0  0  0  0  0  0  0  0  0  0  0  0
   -0.2840   10.8030    9.3810 N   0  0  0  0  0  0  0  0  0  0  0  0
    1.4690    9.1170   12.5670 N   0  0  0  0  0  0  0  0  0  0  0  0
    2.3320    8.2750   11.9190 C   0  0  0  0  0  0  0  0  0  0  0  0
    2.1770    8.3220   10.6110 N   0  0  0  0  0  0  0  0  0  0  0  0
    1.3620    9.3660   13.9930 C   0  0  1  0  0  0  0  0  0  0  0  0
    0.5070    8.3340   14.7410 C   0  0  1  0  0  0  0  0  0  0  0  0
    1.5530    7.3090   15.1430 C   0  0  1  0  0  0  0  0  0  0  0  0
    2.7360    8.2050   15.4970 C   0  0  2  0  0  0  0  0  0  0  0  0
    2.6850    9.3180   14.5850 O   0  0  0  0  0  0  0  0  0  0  0  0
    4.0700    7.4670   15.4090 C   0  0  0  0  0  0  0  0  0  0  0  0
    5.1370    8.2410   15.9420 O   0  0  0  0  0  0  0  0  0  0  0  0
    1.1540    6.4930   16.2340 O   0  0  0  0  0  0  0  0  0  0  0  0
   -0.0900    8.8640   15.9430 O   0  0  0  0  0  0  0  0  0  0  0  0
    2.1210    8.1090    5.8320 H   0  0  0  0  0  0  0  0  0  0  0  0
    1.0400    6.7160    5.9130 H   0  0  0  0  0  0  0  0  0  0  0  0
   -0.0320    8.0360    4.2450 H   0  0  0  0  0  0  0  0  0  0  0  0
    0.3150    9.5570    5.0970 H   0  0  0  0  0  0  0  0  0  0  0  0
   -1.2670    7.0450    7.4570 H   0  0  0  0  0  0  0  0  0  0  0  0
   -1.4290    8.7380    7.9650 H   0  0  0  0  0  0  0  0  0  0  0  0
    0.9470    7.3330    8.2120 H   0  0  0  0  0  0  0  0  0  0  0  0
    1.0810   10.1710    7.3000 H   0  0  0  0  0  0  0  0  0  0  0  0
   -1.4520   11.9110   10.6790 H   0  0  0  0  0  0  0  0  0  0  0  0
    3.0580    7.6610   12.4370 H   0  0  0  0  0  0  0  0  0  0  0  0
    0.9830   10.3870   14.1170 H   0  0  0  0  0  0  0  0  0  0  0  0
   -0.3040    7.8950   14.1530 H   0  0  0  0  0  0  0  0  0  0  0  0
    1.7930    6.6630   14.2900 H   0  0  0  0  0  0  0  0  0  0  0  0
    2.6220    8.5940   16.5170 H   0  0  0  0  0  0  0  0  0  0  0  0
    4.3040    7.2340   14.3650 H   0  0  0  0  0  0  0  0  0  0  0  0
    4.0270    6.5100   15.9400 H   0  0  0  0  0  0  0  0  0  0  0  0
    5.4910    7.7810   16.7300 H   0  0  0  0  0  0  0  0  0  0  0  0
    0.2250    6.2320   16.0590 H   0  0  0  0  0  0  0  0  0  0  0  0
   -0.8720    8.3300   16.1760 H   0  0  0  0  0  0  0  0  0  0  0  0
  1  5  1  0  0  0  0
  2  3  1  0  0  0  0
  2  1  1  0  0  0  0
  3  4  1  0  0  0  0
  4 29  1  0  0  0  0
  4  5  1  0  0  0  0
  4 30  1  0  0  0  0
  5  6  1  0  0  0  0
  5 31  1  1  0  0  0
  6  7  1  0  0  0  0
  7 12  2  0  0  0  0
  7  8  1  0  0  0  0
  8 15  1  0  0  0  0
  8  9  2  0  0  0  0
  9 10  1  0  0  0  0
  9 13  1  0  0  0  0
 11 33  1  0  0  0  0
 11 10  2  0  0  0  0
 12 11  1  0  0  0  0
 13 16  1  0  0  0  0
 14 34  1  0  0  0  0
 14 13  1  0  0  0  0
 15 14  2  0  0  0  0
 16 35  1  1  0  0  0
 16 20  1  0  0  0  0
 16 17  1  0  0  0  0
 17 36  1  6  0  0  0
 17 18  1  0  0  0  0
 17 24  1  0  0  0  0
 18 37  1  6  0  0  0
 18 19  1  0  0  0  0
 18 23  1  0  0  0  0
 19 38  1  1  0  0  0
 20 19  1  0  0  0  0
 21 19  1  0  0  0  0
 21 40  1  0  0  0  0
 21 22  1  0  0  0  0
 22 41  1  0  0  0  0
 24 43  1  0  0  0  0
 25  1  1  0  0  0  0
 26  1  1  0  0  0  0
 27  2  1  0  0  0  0
 28  2  1  0  0  0  0
 32  6  1  0  0  0  0
 39 21  1  0  0  0  0
 42 23  1  0  0  0  0
M  END
>  <Pose>
1

>  <Score>
-7.03

$$$$

 OpenBabel10142114273D

 43 46  0  0  1  0  0  0  0  0999 V2000
    5.3490   10.6520   14.7290 C   0  0  0  0  0  0  0  0  0  0  0  0
    5.4810   12.1260   15.0350 C   0  0  0  0  0  0  0  0  0  0  0  0
    5.4770   12.8120   13.7770 O   0  0  0  0  0  0  0  0  0  0  0  0
    4.9690   11.9070   12.7810 C   0  0  0  0  0  0  0  0  0  0  0  0
    4.4720   10.6430   13.4960 C   0  0  2  0  0  0  0  0  0  0  0  0
    3.0470   10.7530   13.7980 N   0  0  0  0  0  0  0  0  0  0  0  0
    2.1900    9.7400   13.3900 C   0  0  0  0  0  0  0  0  0  0  0  0
    1.9420    9.4970   12.0250 C   0  0  0  0  0  0  0  0  0  0  0  0
    1.0870    8.4520   11.7170 C   0  0  0  0  0  0  0  0  0  0  0  0
    0.4280    7.6570   12.5710 N   0  0  0  0  0  0  0  0  0  0  0  0
    0.7270    7.9780   13.8460 C   0  0  0  0  0  0  0  0  0  0  0  0
    1.5720    8.9340   14.2910 N   0  0  0  0  0  0  0  0  0  0  0  0
    1.0770    8.3930   10.3500 N   0  0  0  0  0  0  0  0  0  0  0  0
    1.9120    9.3750    9.8900 C   0  0  0  0  0  0  0  0  0  0  0  0
    2.4320   10.0810   10.8740 N   0  0  0  0  0  0  0  0  0  0  0  0
    0.3520    7.4000    9.5800 C   0  0  1  0  0  0  0  0  0  0  0  0
   -1.0910    7.8050    9.2450 C   0  0  1  0  0  0  0  0  0  0  0  0
   -0.9080    8.5030    7.9090 C   0  0  1  0  0  0  0  0  0  0  0  0
    0.1570    7.6280    7.2540 C   0  0  2  0  0  0  0  0  0  0  0  0
    1.0290    7.1930    8.3130 O   0  0  0  0  0  0  0  0  0  0  0  0
    0.9260    8.3700    6.1620 C   0  0  0  0  0  0  0  0  0  0  0  0
    2.2720    7.9200    6.0660 O   0  0  0  0  0  0  0  0  0  0  0  0
   -2.0980    8.5650    7.1370 O   0  0  0  0  0  0  0  0  0  0  0  0
   -1.9610    6.6720    9.0480 O   0  0  0  0  0  0  0  0  0  0  0  0
    4.9860   10.0860   15.5880 H   0  0  0  0  0  0  0  0  0  0  0  0
    6.3350   10.2500   14.4620 H   0  0  0  0  0  0  0  0  0  0  0  0
    6.4040   12.3550   15.5750 H   0  0  0  0  0  0  0  0  0  0  0  0
    4.6320   12.4890   15.6250 H   0  0  0  0  0  0  0  0  0  0  0  0
    5.8030   11.6680   12.1120 H   0  0  0  0  0  0  0  0  0  0  0  0
    4.1960   12.4170   12.1970 H   0  0  0  0  0  0  0  0  0  0  0  0
    4.6360    9.7630   12.8640 H   0  0  0  0  0  0  0  0  0  0  0  0
    2.6230   11.6750   13.7170 H   0  0  0  0  0  0  0  0  0  0  0  0
    0.2290    7.3950   14.6150 H   0  0  0  0  0  0  0  0  0  0  0  0
    2.1190    9.5300    8.8390 H   0  0  0  0  0  0  0  0  0  0  0  0
    0.4000    6.4570   10.1360 H   0  0  0  0  0  0  0  0  0  0  0  0
   -1.5720    8.4460    9.9890 H   0  0  0  0  0  0  0  0  0  0  0  0
   -0.5360    9.5220    8.0650 H   0  0  0  0  0  0  0  0  0  0  0  0
   -0.3070    6.7390    6.8080 H   0  0  0  0  0  0  0  0  0  0  0  0
    0.9370    9.4450    6.3720 H   0  0  0  0  0  0  0  0  0  0  0  0
    0.4420    8.2470    5.1870 H   0  0  0  0  0  0  0  0  0  0  0  0
    2.5400    7.5580    6.9350 H   0  0  0  0  0  0  0  0  0  0  0  0
   -2.7910    8.1080    7.6600 H   0  0  0  0  0  0  0  0  0  0  0  0
   -2.7630    6.9600    8.5730 H   0  0  0  0  0  0  0  0  0  0  0  0
  1  2  1  0  0  0  0
  1 25  1  0  0  0  0
  2 27  1  0  0  0  0
  2 28  1  0  0  0  0
  3  2  1  0  0  0  0
  4  5  1  0  0  0  0
  4  3  1  0  0  0  0
  5 31  1  6  0  0  0
  5  6  1  0  0  0  0
  5  1  1  0  0  0  0
  7  6  1  0  0  0  0
  7 12  2  0  0  0  0
  8  7  1  0  0  0  0
  9  8  2  0  0  0  0
  9 10  1  0  0  0  0
 10 11  2  0  0  0  0
 11 12  1  0  0  0  0
 11 33  1  0  0  0  0
 13  9  1  0  0  0  0
 14 13  1  0  0  0  0
 14 15  2  0  0  0  0
 15  8  1  0  0  0  0
 16 35  1  1  0  0  0
 16 13  1  0  0  0  0
 17 16  1  0  0  0  0
 17 36  1  1  0  0  0
 18 37  1  1  0  0  0
 18 17  1  0  0  0  0
 19 38  1  6  0  0  0
 19 18  1  0  0  0  0
 19 20  1  0  0  0  0
 20 16  1  0  0  0  0
 21 39  1  0  0  0  0
 21 19  1  0  0  0  0
 22 21  1  0  0  0  0
 22 41  1  0  0  0  0
 23 42  1  0  0  0  0
 23 18  1  0  0  0  0
 24 17  1  0  0  0  0
 26  1  1  0  0  0  0
 29  4  1  0  0  0  0
 30  4  1  0  0  0  0
 32  6  1  0  0  0  0
 34 14  1  0  0  0  0
 40 21  1  0  0  0  0
 43 24  1  0  0  0  0
M  END
>  <Pose>
1

>  <Score>
-6.83

$$$$

 OpenBabel10142114273D

 43 46  0  0  1  0  0  0  0  0999 V2000
    1.1100    8.0450    7.9460 C   0  0  0  0  0  0  0  0  0  0  0  0
    1.1650    9.1630    6.9320 C   0  0  0  0  0  0  0  0  0  0  0  0
    0.2580    8.8130    5.8790 O   0  0  0  0  0  0  0  0  0  0  0  0
   -0.6100    7.7770    6.3700 C   0  0  0  0  0  0  0  0  0  0  0  0
   -0.3330    7.5940    7.8680 C   0  0  2  0  0  0  0  0  0  0  0  0
   -1.2410    8.4190    8.6610 N   0  0  0  0  0  0  0  0  0  0  0  0
   -0.7630    9.0400    9.8080 C   0  0  0  0  0  0  0  0  0  0  0  0
   -0.0570    8.3180   10.7900 C   0  0  0  0  0  0  0  0  0  0  0  0
    0.3970    9.0300   11.8890 C   0  0  0  0  0  0  0  0  0  0  0  0
    0.2100   10.3300   12.1540 N   0  0  0  0  0  0  0  0  0  0  0  0
   -0.4810   10.9230   11.1590 C   0  0  0  0  0  0  0  0  0  0  0  0
   -0.9430   10.3690   10.0160 N   0  0  0  0  0  0  0  0  0  0  0  0
    1.0940    8.1210   12.6360 N   0  0  0  0  0  0  0  0  0  0  0  0
    1.0470    6.9230   11.9760 C   0  0  0  0  0  0  0  0  0  0  0  0
    0.3360    6.9980   10.8680 N   0  0  0  0  0  0  0  0  0  0  0  0
    1.8010    8.4400   13.8620 C   0  0  1  0  0  0  0  0  0  0  0  0
    0.8790    8.8250   15.0280 C   0  0  1  0  0  0  0  0  0  0  0  0
    0.6410    7.4770   15.6840 C   0  0  1  0  0  0  0  0  0  0  0  0
    2.0150    6.8280   15.5510 C   0  0  2  0  0  0  0  0  0  0  0  0
    2.5540    7.2780   14.2950 O   0  0  0  0  0  0  0  0  0  0  0  0
    1.9460    5.3030   15.6190 C   0  0  0  0  0  0  0  0  0  0  0  0
    0.6390    4.8200   15.3390 O   0  0  0  0  0  0  0  0  0  0  0  0
    0.2230    7.5730   17.0370 O   0  0  0  0  0  0  0  0  0  0  0  0
    1.5200    9.6880   15.9900 O   0  0  0  0  0  0  0  0  0  0  0  0
    1.4670    8.3640    8.9260 H   0  0  0  0  0  0  0  0  0  0  0  0
    1.7540    7.2220    7.6100 H   0  0  0  0  0  0  0  0  0  0  0  0
    2.1690    9.2980    6.5190 H   0  0  0  0  0  0  0  0  0  0  0  0
    0.8350   10.1130    7.3650 H   0  0  0  0  0  0  0  0  0  0  0  0
   -0.3620    6.8640    5.8180 H   0  0  0  0  0  0  0  0  0  0  0  0
   -1.6470    8.0430    6.1420 H   0  0  0  0  0  0  0  0  0  0  0  0
   -0.4650    6.5440    8.1510 H   0  0  0  0  0  0  0  0  0  0  0  0
   -2.1970    8.0870    8.7710 H   0  0  0  0  0  0  0  0  0  0  0  0
   -0.6950   11.9790   11.2890 H   0  0  0  0  0  0  0  0  0  0  0  0
    1.5520    6.0330   12.3300 H   0  0  0  0  0  0  0  0  0  0  0  0
    2.5230    9.2300   13.6260 H   0  0  0  0  0  0  0  0  0  0  0  0
   -0.0520    9.3180   14.7350 H   0  0  0  0  0  0  0  0  0  0  0  0
   -0.1140    6.9140   15.1220 H   0  0  0  0  0  0  0  0  0  0  0  0
    2.6770    7.1810   16.3520 H   0  0  0  0  0  0  0  0  0  0  0  0
    2.2340    4.9570   16.6170 H   0  0  0  0  0  0  0  0  0  0  0  0
    2.6510    4.8460   14.9150 H   0  0  0  0  0  0  0  0  0  0  0  0
    0.0350    5.5860   15.2630 H   0  0  0  0  0  0  0  0  0  0  0  0
   -0.7360    7.3630   17.0460 H   0  0  0  0  0  0  0  0  0  0  0  0
    1.0310   10.5310   16.0430 H   0  0  0  0  0  0  0  0  0  0  0  0
  1 25  1  0  0  0  0
  2 28  1  0  0  0  0
  2  1  1  0  0  0  0
  3  4  1  0  0  0  0
  3  2  1  0  0  0  0
  4  5  1  0  0  0  0
  5  1  1  0  0  0  0
  5 31  1  1  0  0  0
  5  6  1  0  0  0  0
  6 32  1  0  0  0  0
  6  7  1  0  0  0  0
  7 12  2  0  0  0  0
  7  8  1  0  0  0  0
  8 15  1  0  0  0  0
  8  9  2  0  0  0  0
  9 10  1  0  0  0  0
  9 13  1  0  0  0  0
 11 33  1  0  0  0  0
 11 10  2  0  0  0  0
 12 11  1  0  0  0  0
 13 16  1  0  0  0  0
 14 34  1  0  0  0  0
 14 13  1  0  0  0  0
 15 14  2  0  0  0  0
 16 35  1  6  0  0  0
 16 20  1  0  0  0  0
 16 17  1  0  0  0  0
 17 36  1  6  0  0  0
 17 18  1  0  0  0  0
 17 24  1  0  0  0  0
 18 37  1  6  0  0  0
 18 23  1  0  0  0  0
 19 21  1  0  0  0  0
 19 18  1  0  0  0  0
 19 38  1  1  0  0  0
 20 19  1  0  0  0  0
 21 39  1  0  0  0  0
 22 21  1  0  0  0  0
 23 42  1  0  0  0  0
 24 43  1  0  0  0  0
 26  1  1  0  0  0  0
 27  2  1  0  0  0  0
 29  4  1  0  0  0  0
 30  4  1  0  0  0  0
 40 21  1  0  0  0  0
 41 22  1  0  0  0  0
M  END
>  <Pose>
1

>  <Score>
-6.76

$$$$

 OpenBabel10142114273D

 43 46  0  0  1  0  0  0  0  0999 V2000
    4.1910    9.5060   14.4090 C   0  0  0  0  0  0  0  0  0  0  0  0
    4.5530   10.9420   14.7060 C   0  0  0  0  0  0  0  0  0  0  0  0
    4.6620   11.6120   13.4440 O   0  0  0  0  0  0  0  0  0  0  0  0
    4.0200   10.7910   12.4520 C   0  0  0  0  0  0  0  0  0  0  0  0
    3.3270    9.6280   13.1740 C   0  0  2  0  0  0  0  0  0  0  0  0
    1.9360    9.9640   13.4700 N   0  0  0  0  0  0  0  0  0  0  0  0
    1.0250   10.0510   12.4250 C   0  0  0  0  0  0  0  0  0  0  0  0
    0.9230    9.0320   11.4580 C   0  0  0  0  0  0  0  0  0  0  0  0
   -0.0280    9.2000   10.4650 C   0  0  0  0  0  0  0  0  0  0  0  0
   -0.8470   10.2450   10.2870 N   0  0  0  0  0  0  0  0  0  0  0  0
   -0.6630   11.1630   11.2580 C   0  0  0  0  0  0  0  0  0  0  0  0
    0.1880   11.1120   12.3060 N   0  0  0  0  0  0  0  0  0  0  0  0
    0.0370    8.0570    9.7150 N   0  0  0  0  0  0  0  0  0  0  0  0
    0.9950    7.2540   10.2710 C   0  0  0  0  0  0  0  0  0  0  0  0
    1.5720    7.8220   11.3110 N   0  0  0  0  0  0  0  0  0  0  0  0
   -0.8310    7.7690    8.5880 C   0  0  1  0  0  0  0  0  0  0  0  0
   -0.3950    8.4440    7.2800 C   0  0  1  0  0  0  0  0  0  0  0  0
    0.5070    7.3820    6.6770 C   0  0  1  0  0  0  0  0  0  0  0  0
   -0.2400    6.1050    7.0450 C   0  0  2  0  0  0  0  0  0  0  0  0
   -0.8270    6.3390    8.3390 O   0  0  0  0  0  0  0  0  0  0  0  0
    0.6740    4.8800    7.0580 C   0  0  0  0  0  0  0  0  0  0  0  0
   -0.0160    3.7030    6.6600 O   0  0  0  0  0  0  0  0  0  0  0  0
    0.6780    7.5170    5.2730 O   0  0  0  0  0  0  0  0  0  0  0  0
   -1.4930    8.6730    6.3730 O   0  0  0  0  0  0  0  0  0  0  0  0
    3.7400    9.0110   15.2710 H   0  0  0  0  0  0  0  0  0  0  0  0
    5.1020    8.9510   14.1480 H   0  0  0  0  0  0  0  0  0  0  0  0
    5.5000   11.0270   15.2480 H   0  0  0  0  0  0  0  0  0  0  0  0
    3.7720   11.4400   15.2900 H   0  0  0  0  0  0  0  0  0  0  0  0
    4.8070   10.4190   11.7880 H   0  0  0  0  0  0  0  0  0  0  0  0
    3.3390   11.4130   11.8620 H   0  0  0  0  0  0  0  0  0  0  0  0
    3.3510    8.7280   12.5480 H   0  0  0  0  0  0  0  0  0  0  0  0
    1.7690   10.6660   14.1880 H   0  0  0  0  0  0  0  0  0  0  0  0
   -1.2760   12.0570   11.1920 H   0  0  0  0  0  0  0  0  0  0  0  0
    1.2280    6.2650    9.8960 H   0  0  0  0  0  0  0  0  0  0  0  0
   -1.8490    8.0490    8.8800 H   0  0  0  0  0  0  0  0  0  0  0  0
    0.1150    9.4030    7.4060 H   0  0  0  0  0  0  0  0  0  0  0  0
    1.4940    7.4110    7.1550 H   0  0  0  0  0  0  0  0  0  0  0  0
   -1.0520    5.9230    6.3300 H   0  0  0  0  0  0  0  0  0  0  0  0
    1.0760    4.7200    8.0640 H   0  0  0  0  0  0  0  0  0  0  0  0
    1.5360    5.0260    6.3970 H   0  0  0  0  0  0  0  0  0  0  0  0
   -0.8580    3.9640    6.2360 H   0  0  0  0  0  0  0  0  0  0  0  0
    0.0060    8.1660    4.9750 H   0  0  0  0  0  0  0  0  0  0  0  0
   -1.2780    9.4260    5.7910 H   0  0  0  0  0  0  0  0  0  0  0  0
  1  2  1  0  0  0  0
  1 25  1  0  0  0  0
  2 27  1  0  0  0  0
  2 28  1  0  0  0  0
  3  2  1  0  0  0  0
  4  5  1  0  0  0  0
  4  3  1  0  0  0  0
  5 31  1  6  0  0  0
  5  6  1  0  0  0  0
  5  1  1  0  0  0  0
  6 32  1  0  0  0  0
  7  6  1  0  0  0  0
  8  7  1  0  0  0  0
  9  8  2  0  0  0  0
 10  9  1  0  0  0  0
 10 11  2  0  0  0  0
 11 12  1  0  0  0  0
 12  7  2  0  0  0  0
 13 14  1  0  0  0  0
 13  9  1  0  0  0  0
 14 15  2  0  0  0  0
 15  8  1  0  0  0  0
 16 35  1  1  0  0  0
 16 13  1  0  0  0  0
 17 36  1  1  0  0  0
 17 16  1  0  0  0  0
 18 19  1  0  0  0  0
 18 37  1  1  0  0  0
 18 17  1  0  0  0  0
 19 38  1  6  0  0  0
 19 21  1  0  0  0  0
 19 20  1  0  0  0  0
 20 16  1  0  0  0  0
 21 39  1  0  0  0  0
 22 21  1  0  0  0  0
 23 18  1  0  0  0  0
 24 17  1  0  0  0  0
 26  1  1  0  0  0  0
 29  4  1  0  0  0  0
 30  4  1  0  0  0  0
 33 11  1  0  0  0  0
 34 14  1  0  0  0  0
 40 21  1  0  0  0  0
 41 22  1  0  0  0  0
 42 23  1  0  0  0  0
 43 24  1  0  0  0  0
M  END
>  <Pose>
1

>  <Score>
-6.43

$$$$

 OpenBabel10142114273D

 43 46  0  0  1  0  0  0  0  0999 V2000
    1.5900    6.8130   16.5220 C   0  0  0  0  0  0  0  0  0  0  0  0
    0.2860    6.8150   17.2860 C   0  0  0  0  0  0  0  0  0  0  0  0
   -0.1140    8.1850   17.4180 O   0  0  0  0  0  0  0  0  0  0  0  0
    0.6390    8.9590   16.4680 C   0  0  0  0  0  0  0  0  0  0  0  0
    1.4290    7.9870   15.5810 C   0  0  2  0  0  0  0  0  0  0  0  0
    0.6700    7.6630   14.3750 N   0  0  0  0  0  0  0  0  0  0  0  0
    0.7050    8.5410   13.2990 C   0  0  0  0  0  0  0  0  0  0  0  0
    0.6220    8.0750   11.9730 C   0  0  0  0  0  0  0  0  0  0  0  0
    0.6470    9.0290   10.9690 C   0  0  0  0  0  0  0  0  0  0  0  0
    0.7810   10.3560   11.1060 N   0  0  0  0  0  0  0  0  0  0  0  0
    0.8610   10.6930   12.4090 C   0  0  0  0  0  0  0  0  0  0  0  0
    0.8040    9.8810   13.4870 N   0  0  0  0  0  0  0  0  0  0  0  0
    0.4840    8.3260    9.8070 N   0  0  0  0  0  0  0  0  0  0  0  0
    0.3620    7.0040   10.1410 C   0  0  0  0  0  0  0  0  0  0  0  0
    0.4670    6.8120   11.4400 N   0  0  0  0  0  0  0  0  0  0  0  0
    0.3910    8.9300    8.4910 C   0  0  1  0  0  0  0  0  0  0  0  0
    1.2560    8.2400    7.4280 C   0  0  1  0  0  0  0  0  0  0  0  0
    0.2880    7.2120    6.8690 C   0  0  1  0  0  0  0  0  0  0  0  0
   -1.0190    7.9980    6.8660 C   0  0  2  0  0  0  0  0  0  0  0  0
   -0.9820    8.8490    8.0260 O   0  0  0  0  0  0  0  0  0  0  0  0
   -2.2450    7.0860    6.8780 C   0  0  0  0  0  0  0  0  0  0  0  0
   -3.4260    7.7850    6.5080 O   0  0  0  0  0  0  0  0  0  0  0  0
    0.6390    6.7520    5.5730 O   0  0  0  0  0  0  0  0  0  0  0  0
    1.6430    9.1250    6.3570 O   0  0  0  0  0  0  0  0  0  0  0  0
    1.7930    5.8450   16.0620 H   0  0  0  0  0  0  0  0  0  0  0  0
    2.4140    7.0290   17.2150 H   0  0  0  0  0  0  0  0  0  0  0  0
    0.3870    6.3660   18.2780 H   0  0  0  0  0  0  0  0  0  0  0  0
   -0.4990    6.2820   16.7400 H   0  0  0  0  0  0  0  0  0  0  0  0
    1.3200    9.5960   17.0430 H   0  0  0  0  0  0  0  0  0  0  0  0
   -0.0470    9.6060   15.9120 H   0  0  0  0  0  0  0  0  0  0  0  0
    2.3870    8.4340   15.2920 H   0  0  0  0  0  0  0  0  0  0  0  0
   -0.2470    7.2400   14.5010 H   0  0  0  0  0  0  0  0  0  0  0  0
    0.9840   11.7500   12.6220 H   0  0  0  0  0  0  0  0  0  0  0  0
    0.1850    6.2240    9.4100 H   0  0  0  0  0  0  0  0  0  0  0  0
    0.6380    9.9920    8.6020 H   0  0  0  0  0  0  0  0  0  0  0  0
    2.1750    7.7850    7.8080 H   0  0  0  0  0  0  0  0  0  0  0  0
    0.2250    6.3500    7.5430 H   0  0  0  0  0  0  0  0  0  0  0  0
   -1.0730    8.6380    5.9760 H   0  0  0  0  0  0  0  0  0  0  0  0
   -2.3930    6.6670    7.8790 H   0  0  0  0  0  0  0  0  0  0  0  0
   -2.1100    6.2360    6.2010 H   0  0  0  0  0  0  0  0  0  0  0  0
   -3.5270    8.5590    7.0980 H   0  0  0  0  0  0  0  0  0  0  0  0
   -0.1720    6.8240    5.0250 H   0  0  0  0  0  0  0  0  0  0  0  0
    0.8640    9.3180    5.8010 H   0  0  0  0  0  0  0  0  0  0  0  0
  1 26  1  0  0  0  0
  1  2  1  0  0  0  0
  2  3  1  0  0  0  0
  2 27  1  0  0  0  0
  4 29  1  0  0  0  0
  4  3  1  0  0  0  0
  5 31  1  6  0  0  0
  5  4  1  0  0  0  0
  5  1  1  0  0  0  0
  6 32  1  0  0  0  0
  6  5  1  0  0  0  0
  7 12  2  0  0  0  0
  7  6  1  0  0  0  0
  8  7  1  0  0  0  0
  9 10  1  0  0  0  0
  9  8  2  0  0  0  0
 10 11  2  0  0  0  0
 11 33  1  0  0  0  0
 11 12  1  0  0  0  0
 13 14  1  0  0  0  0
 13  9  1  0  0  0  0
 14 15  2  0  0  0  0
 15  8  1  0  0  0  0
 16 35  1  1  0  0  0
 16 13  1  0  0  0  0
 17 36  1  1  0  0  0
 17 16  1  0  0  0  0
 18 17  1  0  0  0  0
 18 37  1  1  0  0  0
 19 38  1  6  0  0  0
 19 18  1  0  0  0  0
 19 21  1  0  0  0  0
 19 20  1  0  0  0  0
 20 16  1  0  0  0  0
 21 39  1  0  0  0  0
 22 21  1  0  0  0  0
 22 41  1  0  0  0  0
 23 18  1  0  0  0  0
 24 17  1  0  0  0  0
 25  1  1  0  0  0  0
 28  2  1  0  0  0  0
 30  4  1  0  0  0  0
 34 14  1  0  0  0  0
 40 21  1  0  0  0  0
 42 23  1  0  0  0  0
 43 24  1  0  0  0  0
M  END
>  <Pose>
1

>  <Score>
-6.39

$$$$

 OpenBabel10142114273D

 43 46  0  0  1  0  0  0  0  0999 V2000
   -1.6810    7.9880    4.7480 C   0  0  0  0  0  0  0  0  0  0  0  0
   -0.7030    7.4710    3.7190 C   0  0  0  0  0  0  0  0  0  0  0  0
    0.5320    8.1640    3.9350 O   0  0  0  0  0  0  0  0  0  0  0  0
    0.4800    8.7620    5.2430 C   0  0  0  0  0  0  0  0  0  0  0  0
   -0.7940    8.2670    5.9410 C   0  0  2  0  0  0  0  0  0  0  0  0
   -0.5090    7.0790    6.7430 N   0  0  0  0  0  0  0  0  0  0  0  0
   -0.5850    7.1650    8.1270 C   0  0  0  0  0  0  0  0  0  0  0  0
    0.0470    8.2080    8.8310 C   0  0  0  0  0  0  0  0  0  0  0  0
   -0.1020    8.2180   10.2080 C   0  0  0  0  0  0  0  0  0  0  0  0
   -0.7500    7.3230   10.9660 N   0  0  0  0  0  0  0  0  0  0  0  0
   -1.3080    6.3660   10.1970 C   0  0  0  0  0  0  0  0  0  0  0  0
   -1.2850    6.2550    8.8510 N   0  0  0  0  0  0  0  0  0  0  0  0
    0.5390    9.3520   10.6260 N   0  0  0  0  0  0  0  0  0  0  0  0
    1.0350    9.9770    9.5140 C   0  0  0  0  0  0  0  0  0  0  0  0
    0.7790    9.3000    8.4120 N   0  0  0  0  0  0  0  0  0  0  0  0
    0.5910    9.8020   12.0040 C   0  0  1  0  0  0  0  0  0  0  0  0
    0.9720    8.7000   13.0030 C   0  0  1  0  0  0  0  0  0  0  0  0
    2.4830    8.8420   13.0490 C   0  0  1  0  0  0  0  0  0  0  0  0
    2.6470   10.3570   12.9850 C   0  0  2  0  0  0  0  0  0  0  0  0
    1.5950   10.8410   12.1290 O   0  0  0  0  0  0  0  0  0  0  0  0
    4.0240   10.7710   12.4700 C   0  0  0  0  0  0  0  0  0  0  0  0
    4.7100   11.5980   13.4020 O   0  0  0  0  0  0  0  0  0  0  0  0
    3.0670    8.2900   14.2200 O   0  0  0  0  0  0  0  0  0  0  0  0
    0.4550    8.9410   14.3290 O   0  0  0  0  0  0  0  0  0  0  0  0
   -2.5090    7.2960    4.9090 H   0  0  0  0  0  0  0  0  0  0  0  0
   -2.1060    8.9370    4.3960 H   0  0  0  0  0  0  0  0  0  0  0  0
   -1.0480    7.6470    2.6960 H   0  0  0  0  0  0  0  0  0  0  0  0
   -0.5190    6.3990    3.8450 H   0  0  0  0  0  0  0  0  0  0  0  0
    0.4420    9.8470    5.0960 H   0  0  0  0  0  0  0  0  0  0  0  0
    1.4010    8.5200    5.7810 H   0  0  0  0  0  0  0  0  0  0  0  0
   -1.1940    9.0510    6.5940 H   0  0  0  0  0  0  0  0  0  0  0  0
    0.2530    6.4800    6.4330 H   0  0  0  0  0  0  0  0  0  0  0  0
   -1.8470    5.5840   10.7240 H   0  0  0  0  0  0  0  0  0  0  0  0
    1.5600   10.9240    9.5530 H   0  0  0  0  0  0  0  0  0  0  0  0
   -0.3800   10.2540   12.2360 H   0  0  0  0  0  0  0  0  0  0  0  0
    0.6550    7.6930   12.7200 H   0  0  0  0  0  0  0  0  0  0  0  0
    2.9320    8.3620   12.1720 H   0  0  0  0  0  0  0  0  0  0  0  0
    2.5040   10.7950   13.9810 H   0  0  0  0  0  0  0  0  0  0  0  0
    3.9260   11.3230   11.5290 H   0  0  0  0  0  0  0  0  0  0  0  0
    4.6430    9.8940   12.2530 H   0  0  0  0  0  0  0  0  0  0  0  0
    4.0500   12.1400   13.8800 H   0  0  0  0  0  0  0  0  0  0  0  0
    2.3310    7.8970   14.7360 H   0  0  0  0  0  0  0  0  0  0  0  0
   -0.2790    8.3240   14.5050 H   0  0  0  0  0  0  0  0  0  0  0  0
  1 25  1  0  0  0  0
  1  5  1  0  0  0  0
  2 28  1  0  0  0  0
  2  3  1  0  0  0  0
  2  1  1  0  0  0  0
  3  4  1  0  0  0  0
  4 30  1  0  0  0  0
  4  5  1  0  0  0  0
  5 31  1  1  0  0  0
  5  6  1  0  0  0  0
  6  7  1  0  0  0  0
  7  8  1  0  0  0  0
  7 12  2  0  0  0  0
  8  9  2  0  0  0  0
  9 13  1  0  0  0  0
  9 10  1  0  0  0  0
 11 33  1  0  0  0  0
 11 10  2  0  0  0  0
 12 11  1  0  0  0  0
 13 16  1  0  0  0  0
 14 34  1  0  0  0  0
 14 13  1  0  0  0  0
 15  8  1  0  0  0  0
 15 14  2  0  0  0  0
 16 20  1  0  0  0  0
 16 35  1  1  0  0  0
 16 17  1  0  0  0  0
 17 36  1  6  0  0  0
 17 18  1  0  0  0  0
 17 24  1  0  0  0  0
 18 37  1  6  0  0  0
 18 23  1  0  0  0  0
 19 18  1  0  0  0  0
 19 38  1  1  0  0  0
 20 19  1  0  0  0  0
 21 19  1  0  0  0  0
 21 22  1  0  0  0  0
 22 41  1  0  0  0  0
 23 42  1  0  0  0  0
 24 43  1  0  0  0  0
 26  1  1  0  0  0  0
 27  2  1  0  0  0  0
 29  4  1  0  0  0  0
 32  6  1  0  0  0  0
 39 21  1  0  0  0  0
 40 21  1  0  0  0  0
M  END
>  <Pose>
1

>  <Score>
-6.37

$$$$

 OpenBabel10142114273D

 43 46  0  0  1  0  0  0  0  0999 V2000
    1.1590    7.8200    7.9930 C   0  0  0  0  0  0  0  0  0  0  0  0
    1.2940    8.8720    6.9160 C   0  0  0  0  0  0  0  0  0  0  0  0
    0.4630    8.4570    5.8240 O   0  0  0  0  0  0  0  0  0  0  0  0
   -0.4450    7.4550    6.3170 C   0  0  0  0  0  0  0  0  0  0  0  0
   -0.2770    7.3680    7.8390 C   0  0  2  0  0  0  0  0  0  0  0  0
   -1.2350    8.2430    8.5110 N   0  0  0  0  0  0  0  0  0  0  0  0
   -0.8300    8.9530    9.6340 C   0  0  0  0  0  0  0  0  0  0  0  0
   -0.2770    8.2990   10.7520 C   0  0  0  0  0  0  0  0  0  0  0  0
    0.1140    9.0960   11.8160 C   0  0  0  0  0  0  0  0  0  0  0  0
   -0.0060   10.4250   11.9280 N   0  0  0  0  0  0  0  0  0  0  0  0
   -0.5520   10.9490   10.8120 C   0  0  0  0  0  0  0  0  0  0  0  0
   -0.9360   10.3050    9.6880 N   0  0  0  0  0  0  0  0  0  0  0  0
    0.6690    8.2310   12.7200 N   0  0  0  0  0  0  0  0  0  0  0  0
    0.6030    6.9750   12.1810 C   0  0  0  0  0  0  0  0  0  0  0  0
    0.0120    6.9740   11.0030 N   0  0  0  0  0  0  0  0  0  0  0  0
    1.2710    8.6370   13.9760 C   0  0  1  0  0  0  0  0  0  0  0  0
    0.4840    8.1900   15.2150 C   0  0  1  0  0  0  0  0  0  0  0  0
    1.1200    6.8430   15.5090 C   0  0  1  0  0  0  0  0  0  0  0  0
    2.5850    7.1240   15.1930 C   0  0  2  0  0  0  0  0  0  0  0  0
    2.5910    8.0430   14.0850 O   0  0  0  0  0  0  0  0  0  0  0  0
    3.3650    5.8500   14.8700 C   0  0  0  0  0  0  0  0  0  0  0  0
    4.7400    5.9730   15.2090 O   0  0  0  0  0  0  0  0  0  0  0  0
    0.9340    6.4100   16.8490 O   0  0  0  0  0  0  0  0  0  0  0  0
    0.6970    9.0480   16.3560 O   0  0  0  0  0  0  0  0  0  0  0  0
    1.4470    8.2010    8.9740 H   0  0  0  0  0  0  0  0  0  0  0  0
    1.8200    6.9770    7.7570 H   0  0  0  0  0  0  0  0  0  0  0  0
    2.3260    8.9790    6.5700 H   0  0  0  0  0  0  0  0  0  0  0  0
    0.9400    9.8480    7.2630 H   0  0  0  0  0  0  0  0  0  0  0  0
   -0.1620    6.5080    5.8430 H   0  0  0  0  0  0  0  0  0  0  0  0
   -1.4610    7.7080    5.9980 H   0  0  0  0  0  0  0  0  0  0  0  0
   -0.4360    6.3380    8.1780 H   0  0  0  0  0  0  0  0  0  0  0  0
   -2.1950    7.9120    8.5870 H   0  0  0  0  0  0  0  0  0  0  0  0
   -0.7020   12.0240   10.8130 H   0  0  0  0  0  0  0  0  0  0  0  0
    1.0060    6.0990   12.6740 H   0  0  0  0  0  0  0  0  0  0  0  0
    1.4030    9.7240   13.9370 H   0  0  0  0  0  0  0  0  0  0  0  0
   -0.5970    8.1200   15.0720 H   0  0  0  0  0  0  0  0  0  0  0  0
    0.7130    6.0810   14.8340 H   0  0  0  0  0  0  0  0  0  0  0  0
    3.0670    7.6180   16.0470 H   0  0  0  0  0  0  0  0  0  0  0  0
    3.2930    5.6250   13.8010 H   0  0  0  0  0  0  0  0  0  0  0  0
    2.9460    4.9880   15.3990 H   0  0  0  0  0  0  0  0  0  0  0  0
    5.0190    5.1590   15.6750 H   0  0  0  0  0  0  0  0  0  0  0  0
   -0.0290    6.4690   17.0270 H   0  0  0  0  0  0  0  0  0  0  0  0
    0.0070    8.8750   17.0230 H   0  0  0  0  0  0  0  0  0  0  0  0
  1 25  1  0  0  0  0
  2 28  1  0  0  0  0
  2  1  1  0  0  0  0
  3  4  1  0  0  0  0
  3  2  1  0  0  0  0
  4  5  1  0  0  0  0
  5  1  1  0  0  0  0
  5 31  1  1  0  0  0
  5  6  1  0  0  0  0
  6 32  1  0  0  0  0
  6  7  1  0  0  0  0
  7 12  2  0  0  0  0
  7  8  1  0  0  0  0
  8 15  1  0  0  0  0
  8  9  2  0  0  0  0
  9 10  1  0  0  0  0
  9 13  1  0  0  0  0
 11 33  1  0  0  0  0
 11 10  2  0  0  0  0
 12 11  1  0  0  0  0
 13 16  1  0  0  0  0
 14 34  1  0  0  0  0
 14 13  1  0  0  0  0
 15 14  2  0  0  0  0
 16 35  1  1  0  0  0
 16 20  1  0  0  0  0
 16 17  1  0  0  0  0
 17 36  1  6  0  0  0
 17 18  1  0  0  0  0
 17 24  1  0  0  0  0
 18 37  1  6  0  0  0
 18 23  1  0  0  0  0
 19 18  1  0  0  0  0
 19 38  1  1  0  0  0
 20 19  1  0  0  0  0
 21 19  1  0  0  0  0
 21 22  1  0  0  0  0
 21 40  1  0  0  0  0
 22 41  1  0  0  0  0
 23 42  1  0  0  0  0
 24 43  1  0  0  0  0
 26  1  1  0  0  0  0
 27  2  1  0  0  0  0
 29  4  1  0  0  0  0
 30  4  1  0  0  0  0
 39 21  1  0  0  0  0
M  END
>  <Pose>
1

>  <Score>
-6.27

$$$$
