
 OpenBabel10142114273D

 47 51  0  0  1  0  0  0  0  0999 V2000
   -1.9990    8.6810   10.7040 C   0  0  0  0  0  0  0  0  0  0  0  0
   -0.8550    8.0760    9.8680 C   0  0  1  0  0  0  0  0  0  0  0  0
   -0.2340    6.8280   10.5280 C   0  0  0  0  0  0  0  0  0  0  0  0
   -0.7640    5.6210   10.2620 C   0  0  0  0  0  0  0  0  0  0  0  0
   -0.0660    4.3910   10.5960 C   0  0  0  0  0  0  0  0  0  0  0  0
    1.2030    4.4380   11.1890 C   0  0  0  0  0  0  0  0  0  0  0  0
    1.9370    3.2420   11.2890 C   0  0  0  0  0  0  0  0  0  0  0  0
    1.3820    2.0320   10.8420 C   0  0  0  0  0  0  0  0  0  0  0  0
    0.0990    1.9930   10.3040 C   0  0  0  0  0  0  0  0  0  0  0  0
   -0.6230    3.1720   10.1780 C   0  0  0  0  0  0  0  0  0  0  0  0
    3.5660    3.1380   11.8600 C   0  0  0  0  0  0  0  0  0  0  0  0
    1.6980    5.7700   11.6530 C   0  0  0  0  0  0  0  0  0  0  0  0
    2.7110    5.8180   12.3560 O   0  0  0  0  0  0  0  0  0  0  0  0
    0.9570    6.9250   11.2820 N   0  0  0  0  0  0  0  0  0  0  0  0
    1.5010    8.1980   11.6760 C   0  0  0  0  0  0  0  0  0  0  0  0
    0.8880    8.9390   12.6940 C   0  0  0  0  0  0  0  0  0  0  0  0
    1.5320   10.0460   13.2500 C   0  0  0  0  0  0  0  0  0  0  0  0
    2.7700   10.4540   12.7580 C   0  0  0  0  0  0  0  0  0  0  0  0
    3.3440    9.7830   11.6810 C   0  0  0  0  0  0  0  0  0  0  0  0
    2.7070    8.6670   11.1340 C   0  0  0  0  0  0  0  0  0  0  0  0
   -1.3990    7.7140    8.5450 N   0  0  0  0  0  0  0  0  0  0  0  0
   -0.6200    8.0320    7.4360 C   0  0  0  0  0  0  0  0  0  0  0  0
    0.7050    8.1860    7.6180 N   0  0  0  0  0  0  0  0  0  0  0  0
    1.4640    8.5470    6.5580 C   0  0  0  0  0  0  0  0  0  0  0  0
    1.0690    8.8230    5.3090 N   0  0  0  0  0  0  0  0  0  0  0  0
   -0.2610    8.7100    5.1590 C   0  0  0  0  0  0  0  0  0  0  0  0
   -1.1120    8.3300    6.1800 C   0  0  0  0  0  0  0  0  0  0  0  0
   -2.3570    8.3740    5.6190 N   0  0  0  0  0  0  0  0  0  0  0  0
   -2.2130    8.7340    4.3080 C   0  0  0  0  0  0  0  0  0  0  0  0
   -0.9540    8.9530    4.0010 N   0  0  0  0  0  0  0  0  0  0  0  0
   -1.7100    8.8030   11.7530 H   0  0  0  0  0  0  0  0  0  0  0  0
   -2.9100    8.0740   10.6590 H   0  0  0  0  0  0  0  0  0  0  0  0
   -2.2670    9.6700   10.3140 H   0  0  0  0  0  0  0  0  0  0  0  0
   -0.1480    8.8930    9.7330 H   0  0  0  0  0  0  0  0  0  0  0  0
   -1.6610    5.5260    9.6560 H   0  0  0  0  0  0  0  0  0  0  0  0
    1.9570    1.1100   10.9010 H   0  0  0  0  0  0  0  0  0  0  0  0
   -0.3230    1.0520    9.9590 H   0  0  0  0  0  0  0  0  0  0  0  0
   -1.6110    3.1370    9.7210 H   0  0  0  0  0  0  0  0  0  0  0  0
   -0.0660    8.6280   13.1140 H   0  0  0  0  0  0  0  0  0  0  0  0
    1.0750   10.5690   14.0870 H   0  0  0  0  0  0  0  0  0  0  0  0
    3.2820   11.2980   13.2140 H   0  0  0  0  0  0  0  0  0  0  0  0
    4.2990   10.1160   11.2820 H   0  0  0  0  0  0  0  0  0  0  0  0
    3.1720    8.1510   10.2980 H   0  0  0  0  0  0  0  0  0  0  0  0
   -2.2910    8.1810    8.3870 H   0  0  0  0  0  0  0  0  0  0  0  0
    2.5300    8.6320    6.7460 H   0  0  0  0  0  0  0  0  0  0  0  0
   -3.2200    8.1560    6.0930 H   0  0  0  0  0  0  0  0  0  0  0  0
   -3.0540    8.8190    3.6310 H   0  0  0  0  0  0  0  0  0  0  0  0
  1 31  1  0  0  0  0
  2 34  1  6  0  0  0
  2  3  1  0  0  0  0
  2  1  1  0  0  0  0
  3 14  1  0  0  0  0
  4  3  2  0  0  0  0
  4  5  1  0  0  0  0
  5  6  1  0  0  0  0
  6  7  2  0  0  0  0
  6 12  1  0  0  0  0
  7 11  1  0  0  0  0
  8 36  1  0  0  0  0
  8  7  1  0  0  0  0
  9  8  2  0  0  0  0
 10  9  1  0  0  0  0
 10  5  2  0  0  0  0
 12 13  2  0  0  0  0
 14 12  1  0  0  0  0
 14 15  1  0  0  0  0
 15 16  1  0  0  0  0
 16 39  1  0  0  0  0
 16 17  2  0  0  0  0
 17 40  1  0  0  0  0
 18 41  1  0  0  0  0
 18 17  1  0  0  0  0
 19 18  2  0  0  0  0
 20 15  2  0  0  0  0
 20 19  1  0  0  0  0
 21  2  1  0  0  0  0
 22 23  1  0  0  0  0
 22 21  1  0  0  0  0
 24 45  1  0  0  0  0
 24 23  2  0  0  0  0
 25 24  1  0  0  0  0
 26 25  2  0  0  0  0
 26 27  1  0  0  0  0
 27 22  2  0  0  0  0
 28 46  1  0  0  0  0
 28 27  1  0  0  0  0
 29 28  1  0  0  0  0
 30 29  2  0  0  0  0
 30 26  1  0  0  0  0
 32  1  1  0  0  0  0
 33  1  1  0  0  0  0
 35  4  1  0  0  0  0
 37  9  1  0  0  0  0
 38 10  1  0  0  0  0
 42 19  1  0  0  0  0
 43 20  1  0  0  0  0
 44 21  1  0  0  0  0
 47 29  1  0  0  0  0
M  END
>  <Pose>
4

>  <Score>
-7.53

$$$$

 OpenBabel10142114273D

 47 51  0  0  1  0  0  0  0  0999 V2000
   -0.9190    9.9860   11.7820 C   0  0  0  0  0  0  0  0  0  0  0  0
   -0.1300    9.2250   10.6990 C   0  0  1  0  0  0  0  0  0  0  0  0
    0.3200    7.8260   11.1670 C   0  0  0  0  0  0  0  0  0  0  0  0
   -0.4130    6.7560   10.8120 C   0  0  0  0  0  0  0  0  0  0  0  0
    0.0960    5.4020   10.9530 C   0  0  0  0  0  0  0  0  0  0  0  0
    1.3890    5.1810   11.4450 C   0  0  0  0  0  0  0  0  0  0  0  0
    1.9260    3.8840   11.3560 C   0  0  0  0  0  0  0  0  0  0  0  0
    1.1570    2.8360   10.8230 C   0  0  0  0  0  0  0  0  0  0  0  0
   -0.1450    3.0590   10.3870 C   0  0  0  0  0  0  0  0  0  0  0  0
   -0.6740    4.3420   10.4490 C   0  0  0  0  0  0  0  0  0  0  0  0
    3.5480    3.4640   11.7810 C   0  0  0  0  0  0  0  0  0  0  0  0
    2.1210    6.3560   12.0130 C   0  0  0  0  0  0  0  0  0  0  0  0
    3.1690    6.1630   12.6350 O   0  0  0  0  0  0  0  0  0  0  0  0
    1.5540    7.6470   11.8300 N   0  0  0  0  0  0  0  0  0  0  0  0
    2.3200    8.7650   12.3190 C   0  0  0  0  0  0  0  0  0  0  0  0
    2.7110    8.8140   13.6630 C   0  0  0  0  0  0  0  0  0  0  0  0
    3.6480    9.7560   14.0920 C   0  0  0  0  0  0  0  0  0  0  0  0
    4.1610   10.6900   13.1950 C   0  0  0  0  0  0  0  0  0  0  0  0
    3.7050   10.7130   11.8790 C   0  0  0  0  0  0  0  0  0  0  0  0
    2.7790    9.7610   11.4450 C   0  0  0  0  0  0  0  0  0  0  0  0
   -0.9970    9.0920    9.5120 N   0  0  0  0  0  0  0  0  0  0  0  0
   -0.3620    8.9190    8.2860 C   0  0  0  0  0  0  0  0  0  0  0  0
    0.9750    9.0720    8.2390 N   0  0  0  0  0  0  0  0  0  0  0  0
    1.5950    8.9600    7.0430 C   0  0  0  0  0  0  0  0  0  0  0  0
    1.0490    8.7480    5.8390 N   0  0  0  0  0  0  0  0  0  0  0  0
   -0.2900    8.6450    5.8990 C   0  0  0  0  0  0  0  0  0  0  0  0
   -1.0060    8.7290    7.0790 C   0  0  0  0  0  0  0  0  0  0  0  0
   -2.3110    8.6090    6.6920 N   0  0  0  0  0  0  0  0  0  0  0  0
   -2.3320    8.4260    5.3380 C   0  0  0  0  0  0  0  0  0  0  0  0
   -1.1210    8.4530    4.8270 N   0  0  0  0  0  0  0  0  0  0  0  0
   -0.4040    9.9600   12.7480 H   0  0  0  0  0  0  0  0  0  0  0  0
   -1.9320    9.5880   11.9130 H   0  0  0  0  0  0  0  0  0  0  0  0
   -1.0350   11.0370   11.4930 H   0  0  0  0  0  0  0  0  0  0  0  0
    0.6970    9.8850   10.4440 H   0  0  0  0  0  0  0  0  0  0  0  0
   -1.3480    6.8720   10.2720 H   0  0  0  0  0  0  0  0  0  0  0  0
    1.5790    1.8360   10.7350 H   0  0  0  0  0  0  0  0  0  0  0  0
   -0.7330    2.2430    9.9740 H   0  0  0  0  0  0  0  0  0  0  0  0
   -1.6800    4.5140   10.0700 H   0  0  0  0  0  0  0  0  0  0  0  0
    2.3460    8.0810   14.3780 H   0  0  0  0  0  0  0  0  0  0  0  0
    3.9950    9.7370   15.1220 H   0  0  0  0  0  0  0  0  0  0  0  0
    4.9130   11.4030   13.5260 H   0  0  0  0  0  0  0  0  0  0  0  0
    4.0890   11.4560   11.1850 H   0  0  0  0  0  0  0  0  0  0  0  0
    2.4390    9.7880   10.4130 H   0  0  0  0  0  0  0  0  0  0  0  0
   -1.5760    9.9230    9.3990 H   0  0  0  0  0  0  0  0  0  0  0  0
    2.6760    9.0630    7.0580 H   0  0  0  0  0  0  0  0  0  0  0  0
   -3.1080    8.6310    7.3090 H   0  0  0  0  0  0  0  0  0  0  0  0
   -3.2500    8.2800    4.7830 H   0  0  0  0  0  0  0  0  0  0  0  0
  1 32  1  0  0  0  0
  1 31  1  0  0  0  0
  2 34  1  6  0  0  0
  2  3  1  0  0  0  0
  2  1  1  0  0  0  0
  3 14  1  0  0  0  0
  4  5  1  0  0  0  0
  4  3  2  0  0  0  0
  5  6  1  0  0  0  0
  6 12  1  0  0  0  0
  7  6  2  0  0  0  0
  7 11  1  0  0  0  0
  8  7  1  0  0  0  0
  9 10  1  0  0  0  0
  9  8  2  0  0  0  0
 10  5  2  0  0  0  0
 12 13  2  0  0  0  0
 14 12  1  0  0  0  0
 14 15  1  0  0  0  0
 15 16  1  0  0  0  0
 16 17  2  0  0  0  0
 16 39  1  0  0  0  0
 17 40  1  0  0  0  0
 18 41  1  0  0  0  0
 18 17  1  0  0  0  0
 19 18  2  0  0  0  0
 20 19  1  0  0  0  0
 20 15  2  0  0  0  0
 21  2  1  0  0  0  0
 22 21  1  0  0  0  0
 23 22  1  0  0  0  0
 24 45  1  0  0  0  0
 24 23  2  0  0  0  0
 25 26  2  0  0  0  0
 25 24  1  0  0  0  0
 26 27  1  0  0  0  0
 27 22  2  0  0  0  0
 28 27  1  0  0  0  0
 28 46  1  0  0  0  0
 29 28  1  0  0  0  0
 30 29  2  0  0  0  0
 30 26  1  0  0  0  0
 33  1  1  0  0  0  0
 35  4  1  0  0  0  0
 36  8  1  0  0  0  0
 37  9  1  0  0  0  0
 38 10  1  0  0  0  0
 42 19  1  0  0  0  0
 43 20  1  0  0  0  0
 44 21  1  0  0  0  0
 47 29  1  0  0  0  0
M  END
>  <Pose>
1

>  <Score>
-7.14

$$$$

 OpenBabel10142114273D

 47 51  0  0  1  0  0  0  0  0999 V2000
   -2.8490    6.5950   11.5480 C   0  0  0  0  0  0  0  0  0  0  0  0
   -1.4110    6.9880   11.1580 C   0  0  1  0  0  0  0  0  0  0  0  0
   -0.3830    5.8900   11.4990 C   0  0  0  0  0  0  0  0  0  0  0  0
   -0.6850    4.6090   11.2200 C   0  0  0  0  0  0  0  0  0  0  0  0
    0.3280    3.5670   11.2310 C   0  0  0  0  0  0  0  0  0  0  0  0
    1.6630    3.8830   11.5140 C   0  0  0  0  0  0  0  0  0  0  0  0
    2.6430    2.8990   11.2950 C   0  0  0  0  0  0  0  0  0  0  0  0
    2.2730    1.6200   10.8450 C   0  0  0  0  0  0  0  0  0  0  0  0
    0.9370    1.3040   10.6200 C   0  0  0  0  0  0  0  0  0  0  0  0
   -0.0350    2.2780   10.8090 C   0  0  0  0  0  0  0  0  0  0  0  0
    4.3450    3.1580   11.4540 C   0  0  0  0  0  0  0  0  0  0  0  0
    1.9550    5.2650   12.0080 C   0  0  0  0  0  0  0  0  0  0  0  0
    3.0770    5.5130   12.4560 O   0  0  0  0  0  0  0  0  0  0  0  0
    0.9090    6.2250   11.9620 N   0  0  0  0  0  0  0  0  0  0  0  0
    1.2410    7.5650   12.3710 C   0  0  0  0  0  0  0  0  0  0  0  0
    0.8480    8.0330   13.6320 C   0  0  0  0  0  0  0  0  0  0  0  0
    1.3660    9.2280   14.1350 C   0  0  0  0  0  0  0  0  0  0  0  0
    2.2370    9.9930   13.3630 C   0  0  0  0  0  0  0  0  0  0  0  0
    2.5570    9.5870   12.0690 C   0  0  0  0  0  0  0  0  0  0  0  0
    2.0520    8.3830   11.5700 C   0  0  0  0  0  0  0  0  0  0  0  0
   -1.3880    7.2500    9.7070 N   0  0  0  0  0  0  0  0  0  0  0  0
   -0.5450    8.2660    9.2650 C   0  0  0  0  0  0  0  0  0  0  0  0
   -0.5690    9.4400    9.9250 N   0  0  0  0  0  0  0  0  0  0  0  0
    0.2060   10.4510    9.4720 C   0  0  0  0  0  0  0  0  0  0  0  0
    1.0000   10.4710    8.3940 N   0  0  0  0  0  0  0  0  0  0  0  0
    0.9750    9.3080    7.7210 C   0  0  0  0  0  0  0  0  0  0  0  0
    0.2270    8.2150    8.1200 C   0  0  0  0  0  0  0  0  0  0  0  0
    0.4590    7.2760    7.1570 N   0  0  0  0  0  0  0  0  0  0  0  0
    1.3410    7.8060    6.2570 C   0  0  0  0  0  0  0  0  0  0  0  0
    1.6650    9.0420    6.5680 N   0  0  0  0  0  0  0  0  0  0  0  0
   -2.8980    6.2120   12.5730 H   0  0  0  0  0  0  0  0  0  0  0  0
   -3.2710    5.8440   10.8710 H   0  0  0  0  0  0  0  0  0  0  0  0
   -3.5070    7.4700   11.4860 H   0  0  0  0  0  0  0  0  0  0  0  0
   -1.2300    7.9280   11.6770 H   0  0  0  0  0  0  0  0  0  0  0  0
   -1.6620    4.3370   10.8320 H   0  0  0  0  0  0  0  0  0  0  0  0
    3.0330    0.8640   10.6570 H   0  0  0  0  0  0  0  0  0  0  0  0
    0.6590    0.3130   10.2700 H   0  0  0  0  0  0  0  0  0  0  0  0
   -1.0740    2.0330   10.5940 H   0  0  0  0  0  0  0  0  0  0  0  0
    0.1900    7.4440   14.2650 H   0  0  0  0  0  0  0  0  0  0  0  0
    1.1060    9.5420   15.1430 H   0  0  0  0  0  0  0  0  0  0  0  0
    2.6600   10.9070   13.7700 H   0  0  0  0  0  0  0  0  0  0  0  0
    3.2190   10.1950   11.4590 H   0  0  0  0  0  0  0  0  0  0  0  0
    2.3170    8.0770   10.5620 H   0  0  0  0  0  0  0  0  0  0  0  0
   -2.3160    7.5110    9.3770 H   0  0  0  0  0  0  0  0  0  0  0  0
    0.1750   11.3680   10.0520 H   0  0  0  0  0  0  0  0  0  0  0  0
    0.0610    6.3490    7.1350 H   0  0  0  0  0  0  0  0  0  0  0  0
    1.7080    7.2510    5.4030 H   0  0  0  0  0  0  0  0  0  0  0  0
  1 31  1  0  0  0  0
  2  3  1  0  0  0  0
  2  1  1  0  0  0  0
  2 34  1  1  0  0  0
  3 14  1  0  0  0  0
  4  5  1  0  0  0  0
  4  3  2  0  0  0  0
  5  6  1  0  0  0  0
  6 12  1  0  0  0  0
  7 11  1  0  0  0  0
  7  6  2  0  0  0  0
  8  7  1  0  0  0  0
  9 10  1  0  0  0  0
  9  8  2  0  0  0  0
 10  5  2  0  0  0  0
 12 13  2  0  0  0  0
 14 12  1  0  0  0  0
 14 15  1  0  0  0  0
 15 16  1  0  0  0  0
 16 17  2  0  0  0  0
 16 39  1  0  0  0  0
 17 40  1  0  0  0  0
 18 41  1  0  0  0  0
 18 17  1  0  0  0  0
 19 18  2  0  0  0  0
 20 19  1  0  0  0  0
 20 15  2  0  0  0  0
 21  2  1  0  0  0  0
 22 21  1  0  0  0  0
 22 23  1  0  0  0  0
 24 23  2  0  0  0  0
 24 45  1  0  0  0  0
 25 24  1  0  0  0  0
 26 27  1  0  0  0  0
 26 25  2  0  0  0  0
 27 22  2  0  0  0  0
 28 27  1  0  0  0  0
 29 30  2  0  0  0  0
 29 28  1  0  0  0  0
 30 26  1  0  0  0  0
 32  1  1  0  0  0  0
 33  1  1  0  0  0  0
 35  4  1  0  0  0  0
 36  8  1  0  0  0  0
 37  9  1  0  0  0  0
 38 10  1  0  0  0  0
 42 19  1  0  0  0  0
 43 20  1  0  0  0  0
 44 21  1  0  0  0  0
 46 28  1  0  0  0  0
 47 29  1  0  0  0  0
M  END
>  <Pose>
1

>  <Score>
-7.04

$$$$

 OpenBabel10142114273D

 47 51  0  0  1  0  0  0  0  0999 V2000
   -1.4390    7.1450    9.2500 C   0  0  0  0  0  0  0  0  0  0  0  0
   -0.3160    7.5660   10.2170 C   0  0  1  0  0  0  0  0  0  0  0  0
    0.3700    6.3590   10.8910 C   0  0  0  0  0  0  0  0  0  0  0  0
    0.0250    5.1180   10.5050 C   0  0  0  0  0  0  0  0  0  0  0  0
    0.8220    3.9580   10.8660 C   0  0  0  0  0  0  0  0  0  0  0  0
    1.9960    4.1130   11.6140 C   0  0  0  0  0  0  0  0  0  0  0  0
    2.8530    3.0060   11.7500 C   0  0  0  0  0  0  0  0  0  0  0  0
    2.5060    1.7700   11.1810 C   0  0  0  0  0  0  0  0  0  0  0  0
    1.3100    1.6160   10.4860 C   0  0  0  0  0  0  0  0  0  0  0  0
    0.4700    2.7110   10.3260 C   0  0  0  0  0  0  0  0  0  0  0  0
    4.4030    3.0550   12.5140 C   0  0  0  0  0  0  0  0  0  0  0  0
    2.2680    5.4630   12.1980 C   0  0  0  0  0  0  0  0  0  0  0  0
    3.1770    5.5840   13.0240 O   0  0  0  0  0  0  0  0  0  0  0  0
    1.4420    6.5450   11.7920 N   0  0  0  0  0  0  0  0  0  0  0  0
    1.7770    7.8470   12.3100 C   0  0  0  0  0  0  0  0  0  0  0  0
    2.7150    8.6470   11.6460 C   0  0  0  0  0  0  0  0  0  0  0  0
    2.8690    9.9910   11.9920 C   0  0  0  0  0  0  0  0  0  0  0  0
    2.1280   10.5320   13.0400 C   0  0  0  0  0  0  0  0  0  0  0  0
    1.2640    9.7200   13.7720 C   0  0  0  0  0  0  0  0  0  0  0  0
    1.0980    8.3790   13.4160 C   0  0  0  0  0  0  0  0  0  0  0  0
    0.6830    8.3330    9.4500 N   0  0  0  0  0  0  0  0  0  0  0  0
    0.6860    8.1570    8.0690 C   0  0  0  0  0  0  0  0  0  0  0  0
    1.8680    7.9420    7.4610 N   0  0  0  0  0  0  0  0  0  0  0  0
    1.8890    7.8220    6.1140 C   0  0  0  0  0  0  0  0  0  0  0  0
    0.8680    7.9280    5.2540 N   0  0  0  0  0  0  0  0  0  0  0  0
   -0.2950    8.1900    5.8750 C   0  0  0  0  0  0  0  0  0  0  0  0
   -0.4140    8.3110    7.2470 C   0  0  0  0  0  0  0  0  0  0  0  0
   -1.7330    8.6040    7.4490 N   0  0  0  0  0  0  0  0  0  0  0  0
   -2.3510    8.6130    6.2300 C   0  0  0  0  0  0  0  0  0  0  0  0
   -1.5030    8.3740    5.2550 N   0  0  0  0  0  0  0  0  0  0  0  0
   -2.1180    6.4200    9.7120 H   0  0  0  0  0  0  0  0  0  0  0  0
   -1.0460    6.7150    8.3210 H   0  0  0  0  0  0  0  0  0  0  0  0
   -2.0310    8.0200    8.9590 H   0  0  0  0  0  0  0  0  0  0  0  0
   -0.7960    8.2420   10.9220 H   0  0  0  0  0  0  0  0  0  0  0  0
   -0.7760    4.9570    9.7880 H   0  0  0  0  0  0  0  0  0  0  0  0
    3.1770    0.9170   11.2690 H   0  0  0  0  0  0  0  0  0  0  0  0
    1.0500    0.6560   10.0470 H   0  0  0  0  0  0  0  0  0  0  0  0
   -0.4450    2.5910    9.7480 H   0  0  0  0  0  0  0  0  0  0  0  0
    3.2870    8.2570   10.8080 H   0  0  0  0  0  0  0  0  0  0  0  0
    3.5500   10.6170   11.4210 H   0  0  0  0  0  0  0  0  0  0  0  0
    2.2300   11.5850   13.2880 H   0  0  0  0  0  0  0  0  0  0  0  0
    0.7030   10.1370   14.6040 H   0  0  0  0  0  0  0  0  0  0  0  0
    0.4150    7.7610   13.9930 H   0  0  0  0  0  0  0  0  0  0  0  0
    1.6260    8.0930    9.7520 H   0  0  0  0  0  0  0  0  0  0  0  0
    2.8600    7.6230    5.6710 H   0  0  0  0  0  0  0  0  0  0  0  0
   -2.1660    8.7620    8.3450 H   0  0  0  0  0  0  0  0  0  0  0  0
   -3.4110    8.7990    6.1150 H   0  0  0  0  0  0  0  0  0  0  0  0
  1 31  1  0  0  0  0
  1  2  1  0  0  0  0
  2  3  1  0  0  0  0
  2 34  1  1  0  0  0
  3 14  1  0  0  0  0
  4  5  1  0  0  0  0
  4  3  2  0  0  0  0
  5  6  1  0  0  0  0
  6  7  2  0  0  0  0
  6 12  1  0  0  0  0
  7 11  1  0  0  0  0
  8 36  1  0  0  0  0
  8  7  1  0  0  0  0
  9  8  2  0  0  0  0
 10  9  1  0  0  0  0
 10  5  2  0  0  0  0
 12 13  2  0  0  0  0
 14 12  1  0  0  0  0
 14 15  1  0  0  0  0
 15 20  1  0  0  0  0
 16 17  1  0  0  0  0
 16 15  2  0  0  0  0
 17 18  2  0  0  0  0
 18 41  1  0  0  0  0
 18 19  1  0  0  0  0
 19 42  1  0  0  0  0
 20 19  2  0  0  0  0
 20 43  1  0  0  0  0
 21 44  1  0  0  0  0
 21  2  1  0  0  0  0
 22 21  1  0  0  0  0
 23 22  1  0  0  0  0
 24 23  2  0  0  0  0
 25 26  2  0  0  0  0
 25 24  1  0  0  0  0
 26 27  1  0  0  0  0
 27 28  1  0  0  0  0
 27 22  2  0  0  0  0
 28 46  1  0  0  0  0
 29 28  1  0  0  0  0
 30 26  1  0  0  0  0
 30 29  2  0  0  0  0
 32  1  1  0  0  0  0
 33  1  1  0  0  0  0
 35  4  1  0  0  0  0
 37  9  1  0  0  0  0
 38 10  1  0  0  0  0
 39 16  1  0  0  0  0
 40 17  1  0  0  0  0
 45 24  1  0  0  0  0
 47 29  1  0  0  0  0
M  END
>  <Pose>
1

>  <Score>
-6.89

$$$$

 OpenBabel10142114273D

 47 51  0  0  1  0  0  0  0  0999 V2000
   -2.4130    7.0180   10.2570 C   0  0  0  0  0  0  0  0  0  0  0  0
   -0.9690    6.9500    9.7210 C   0  0  1  0  0  0  0  0  0  0  0  0
   -0.1350    5.8470   10.4040 C   0  0  0  0  0  0  0  0  0  0  0  0
   -0.4730    4.5610   10.2040 C   0  0  0  0  0  0  0  0  0  0  0  0
    0.4240    3.4730   10.5580 C   0  0  0  0  0  0  0  0  0  0  0  0
    1.6870    3.7470   11.1000 C   0  0  0  0  0  0  0  0  0  0  0  0
    2.6060    2.6890   11.2180 C   0  0  0  0  0  0  0  0  0  0  0  0
    2.2390    1.3880   10.8380 C   0  0  0  0  0  0  0  0  0  0  0  0
    0.9630    1.1210   10.3510 C   0  0  0  0  0  0  0  0  0  0  0  0
    0.0570    2.1640   10.2080 C   0  0  0  0  0  0  0  0  0  0  0  0
    4.2480    2.8710   11.7290 C   0  0  0  0  0  0  0  0  0  0  0  0
    1.9760    5.1600   11.4940 C   0  0  0  0  0  0  0  0  0  0  0  0
    2.9900    5.3990   12.1560 O   0  0  0  0  0  0  0  0  0  0  0  0
    1.0480    6.1650   11.1080 N   0  0  0  0  0  0  0  0  0  0  0  0
    1.3920    7.5250   11.4340 C   0  0  0  0  0  0  0  0  0  0  0  0
    0.6460    8.2290   12.3860 C   0  0  0  0  0  0  0  0  0  0  0  0
    1.1080    9.4480   12.8860 C   0  0  0  0  0  0  0  0  0  0  0  0
    2.2910   10.0000   12.4000 C   0  0  0  0  0  0  0  0  0  0  0  0
    2.9900    9.3550   11.3820 C   0  0  0  0  0  0  0  0  0  0  0  0
    2.5360    8.1280   10.8920 C   0  0  0  0  0  0  0  0  0  0  0  0
   -1.0330    6.6920    8.2700 N   0  0  0  0  0  0  0  0  0  0  0  0
   -0.1850    7.4430    7.4610 C   0  0  0  0  0  0  0  0  0  0  0  0
    0.6460    8.3190    8.0570 N   0  0  0  0  0  0  0  0  0  0  0  0
    1.4360    9.0920    7.2770 C   0  0  0  0  0  0  0  0  0  0  0  0
    1.4890    9.1430    5.9400 N   0  0  0  0  0  0  0  0  0  0  0  0
    0.6200    8.2970    5.3630 C   0  0  0  0  0  0  0  0  0  0  0  0
   -0.2130    7.4570    6.0800 C   0  0  0  0  0  0  0  0  0  0  0  0
   -0.9410    6.8050    5.1250 N   0  0  0  0  0  0  0  0  0  0  0  0
   -0.5080    7.2350    3.9020 C   0  0  0  0  0  0  0  0  0  0  0  0
    0.4320    8.1470    4.0140 N   0  0  0  0  0  0  0  0  0  0  0  0
   -2.4370    7.0240   11.3510 H   0  0  0  0  0  0  0  0  0  0  0  0
   -3.0270    6.1850    9.8970 H   0  0  0  0  0  0  0  0  0  0  0  0
   -2.9010    7.9350    9.9060 H   0  0  0  0  0  0  0  0  0  0  0  0
   -0.5710    7.9520    9.8720 H   0  0  0  0  0  0  0  0  0  0  0  0
   -1.3610    4.2970    9.6370 H   0  0  0  0  0  0  0  0  0  0  0  0
    2.9570    0.5720   10.9100 H   0  0  0  0  0  0  0  0  0  0  0  0
    0.6880    0.1110   10.0570 H   0  0  0  0  0  0  0  0  0  0  0  0
   -0.9260    1.9520    9.7910 H   0  0  0  0  0  0  0  0  0  0  0  0
   -0.2670    7.8100   12.8020 H   0  0  0  0  0  0  0  0  0  0  0  0
    0.5530    9.9490   13.6760 H   0  0  0  0  0  0  0  0  0  0  0  0
    2.6620   10.9340   12.8120 H   0  0  0  0  0  0  0  0  0  0  0  0
    3.9010    9.7970   10.9870 H   0  0  0  0  0  0  0  0  0  0  0  0
    3.0980    7.6350   10.1030 H   0  0  0  0  0  0  0  0  0  0  0  0
   -1.9710    6.8760    7.9170 H   0  0  0  0  0  0  0  0  0  0  0  0
    2.1090    9.7630    7.8020 H   0  0  0  0  0  0  0  0  0  0  0  0
   -1.6540    6.1140    5.3030 H   0  0  0  0  0  0  0  0  0  0  0  0
   -0.9110    6.8530    2.9730 H   0  0  0  0  0  0  0  0  0  0  0  0
  1 31  1  0  0  0  0
  2 34  1  1  0  0  0
  2  1  1  0  0  0  0
  2  3  1  0  0  0  0
  3 14  1  0  0  0  0
  4  3  2  0  0  0  0
  4  5  1  0  0  0  0
  5  6  1  0  0  0  0
  6  7  2  0  0  0  0
  6 12  1  0  0  0  0
  7 11  1  0  0  0  0
  8 36  1  0  0  0  0
  8  7  1  0  0  0  0
  9  8  2  0  0  0  0
 10  9  1  0  0  0  0
 10  5  2  0  0  0  0
 12 13  2  0  0  0  0
 14 15  1  0  0  0  0
 14 12  1  0  0  0  0
 15 16  1  0  0  0  0
 16 39  1  0  0  0  0
 16 17  2  0  0  0  0
 17 40  1  0  0  0  0
 18 41  1  0  0  0  0
 18 17  1  0  0  0  0
 19 18  2  0  0  0  0
 20 19  1  0  0  0  0
 20 15  2  0  0  0  0
 21  2  1  0  0  0  0
 22 23  1  0  0  0  0
 22 21  1  0  0  0  0
 24 45  1  0  0  0  0
 24 23  2  0  0  0  0
 25 24  1  0  0  0  0
 26 25  2  0  0  0  0
 26 27  1  0  0  0  0
 27 22  2  0  0  0  0
 28 46  1  0  0  0  0
 28 27  1  0  0  0  0
 29 30  2  0  0  0  0
 29 28  1  0  0  0  0
 30 26  1  0  0  0  0
 32  1  1  0  0  0  0
 33  1  1  0  0  0  0
 35  4  1  0  0  0  0
 37  9  1  0  0  0  0
 38 10  1  0  0  0  0
 42 19  1  0  0  0  0
 43 20  1  0  0  0  0
 44 21  1  0  0  0  0
 47 29  1  0  0  0  0
M  END
>  <Pose>
1

>  <Score>
-6.85

$$$$

 OpenBabel10142114273D

 47 51  0  0  1  0  0  0  0  0999 V2000
   -0.6770    8.7250   10.1740 C   0  0  0  0  0  0  0  0  0  0  0  0
   -0.0990    7.4910    9.4540 C   0  0  1  0  0  0  0  0  0  0  0  0
   -0.1410    6.2220   10.3290 C   0  0  0  0  0  0  0  0  0  0  0  0
   -0.7280    5.1150    9.8400 C   0  0  0  0  0  0  0  0  0  0  0  0
   -0.5470    3.8160   10.4660 C   0  0  0  0  0  0  0  0  0  0  0  0
    0.2740    3.6830   11.5940 C   0  0  0  0  0  0  0  0  0  0  0  0
    0.6030    2.3880   12.0320 C   0  0  0  0  0  0  0  0  0  0  0  0
    0.0780    1.2640   11.3720 C   0  0  0  0  0  0  0  0  0  0  0  0
   -0.7790    1.4120   10.2860 C   0  0  0  0  0  0  0  0  0  0  0  0
   -1.0890    2.6880    9.8310 C   0  0  0  0  0  0  0  0  0  0  0  0
    1.7110    2.0380   13.3120 C   0  0  0  0  0  0  0  0  0  0  0  0
    0.7660    4.9390   12.2400 C   0  0  0  0  0  0  0  0  0  0  0  0
    1.3160    4.8670   13.3420 O   0  0  0  0  0  0  0  0  0  0  0  0
    0.5490    6.1690   11.5610 N   0  0  0  0  0  0  0  0  0  0  0  0
    1.1020    7.3510   12.1700 C   0  0  0  0  0  0  0  0  0  0  0  0
    0.7100    7.7250   13.4620 C   0  0  0  0  0  0  0  0  0  0  0  0
    1.4080    8.7170   14.1530 C   0  0  0  0  0  0  0  0  0  0  0  0
    2.4690    9.3810   13.5410 C   0  0  0  0  0  0  0  0  0  0  0  0
    2.8040    9.0850   12.2220 C   0  0  0  0  0  0  0  0  0  0  0  0
    2.1160    8.0830   11.5340 C   0  0  0  0  0  0  0  0  0  0  0  0
   -0.8860    7.2690    8.2260 N   0  0  0  0  0  0  0  0  0  0  0  0
   -0.3030    7.6640    7.0260 C   0  0  0  0  0  0  0  0  0  0  0  0
    1.0400    7.7430    6.9710 N   0  0  0  0  0  0  0  0  0  0  0  0
    1.6140    8.1770    5.8260 C   0  0  0  0  0  0  0  0  0  0  0  0
    1.0170    8.5950    4.7030 N   0  0  0  0  0  0  0  0  0  0  0  0
   -0.3230    8.5540    4.7940 C   0  0  0  0  0  0  0  0  0  0  0  0
   -0.9960    8.1090    5.9160 C   0  0  0  0  0  0  0  0  0  0  0  0
   -2.3160    8.2620    5.6030 N   0  0  0  0  0  0  0  0  0  0  0  0
   -2.3910    8.7470    4.3270 C   0  0  0  0  0  0  0  0  0  0  0  0
   -1.1980    8.9430    3.8130 N   0  0  0  0  0  0  0  0  0  0  0  0
   -0.2600    8.8380   11.1800 H   0  0  0  0  0  0  0  0  0  0  0  0
   -1.7700    8.6860   10.2490 H   0  0  0  0  0  0  0  0  0  0  0  0
   -0.4400    9.6340    9.6090 H   0  0  0  0  0  0  0  0  0  0  0  0
    0.9080    7.7860    9.1640 H   0  0  0  0  0  0  0  0  0  0  0  0
   -1.2340    5.1290    8.8800 H   0  0  0  0  0  0  0  0  0  0  0  0
    0.3480    0.2610   11.6980 H   0  0  0  0  0  0  0  0  0  0  0  0
   -1.1800    0.5370    9.7790 H   0  0  0  0  0  0  0  0  0  0  0  0
   -1.7300    2.7930    8.9570 H   0  0  0  0  0  0  0  0  0  0  0  0
   -0.0970    7.2060   13.9720 H   0  0  0  0  0  0  0  0  0  0  0  0
    1.1360    8.9470   15.1810 H   0  0  0  0  0  0  0  0  0  0  0  0
    3.0280   10.1320   14.0930 H   0  0  0  0  0  0  0  0  0  0  0  0
    3.6170    9.6190   11.7370 H   0  0  0  0  0  0  0  0  0  0  0  0
    2.3950    7.8590   10.5080 H   0  0  0  0  0  0  0  0  0  0  0  0
   -1.7700    7.7750    8.2730 H   0  0  0  0  0  0  0  0  0  0  0  0
    2.7000    8.1980    5.8190 H   0  0  0  0  0  0  0  0  0  0  0  0
   -3.0910    8.0340    6.2080 H   0  0  0  0  0  0  0  0  0  0  0  0
   -3.3340    8.9360    3.8300 H   0  0  0  0  0  0  0  0  0  0  0  0
  1 32  1  0  0  0  0
  1 31  1  0  0  0  0
  2 34  1  6  0  0  0
  2  1  1  0  0  0  0
  2  3  1  0  0  0  0
  3 14  1  0  0  0  0
  4  3  2  0  0  0  0
  4  5  1  0  0  0  0
  5  6  1  0  0  0  0
  6  7  2  0  0  0  0
  6 12  1  0  0  0  0
  7 11  1  0  0  0  0
  8 36  1  0  0  0  0
  8  7  1  0  0  0  0
  9  8  2  0  0  0  0
 10  9  1  0  0  0  0
 10  5  2  0  0  0  0
 12 13  2  0  0  0  0
 14 15  1  0  0  0  0
 14 12  1  0  0  0  0
 15 16  1  0  0  0  0
 16 39  1  0  0  0  0
 16 17  2  0  0  0  0
 17 40  1  0  0  0  0
 18 41  1  0  0  0  0
 18 17  1  0  0  0  0
 19 18  2  0  0  0  0
 20 15  2  0  0  0  0
 20 19  1  0  0  0  0
 21 44  1  0  0  0  0
 21  2  1  0  0  0  0
 22 21  1  0  0  0  0
 23 22  1  0  0  0  0
 24 23  2  0  0  0  0
 25 26  2  0  0  0  0
 25 24  1  0  0  0  0
 26 27  1  0  0  0  0
 27 22  2  0  0  0  0
 28 27  1  0  0  0  0
 28 46  1  0  0  0  0
 29 28  1  0  0  0  0
 30 29  2  0  0  0  0
 30 26  1  0  0  0  0
 33  1  1  0  0  0  0
 35  4  1  0  0  0  0
 37  9  1  0  0  0  0
 38 10  1  0  0  0  0
 42 19  1  0  0  0  0
 43 20  1  0  0  0  0
 45 24  1  0  0  0  0
 47 29  1  0  0  0  0
M  END
>  <Pose>
1

>  <Score>
-6.67

$$$$

 OpenBabel10142114273D

 47 51  0  0  1  0  0  0  0  0999 V2000
    0.1150   10.2220   11.4860 C   0  0  0  0  0  0  0  0  0  0  0  0
    1.4350    9.9630   10.7340 C   0  0  1  0  0  0  0  0  0  0  0  0
    2.6480    9.8660   11.6830 C   0  0  0  0  0  0  0  0  0  0  0  0
    3.5280   10.8830   11.7160 C   0  0  0  0  0  0  0  0  0  0  0  0
    4.5130   11.0040   12.7780 C   0  0  0  0  0  0  0  0  0  0  0  0
    4.5500   10.0650   13.8170 C   0  0  0  0  0  0  0  0  0  0  0  0
    5.3590   10.3380   14.9350 C   0  0  0  0  0  0  0  0  0  0  0  0
    6.1370   11.5060   14.9760 C   0  0  0  0  0  0  0  0  0  0  0  0
    6.1310   12.4030   13.9130 C   0  0  0  0  0  0  0  0  0  0  0  0
    5.3160   12.1540   12.8160 C   0  0  0  0  0  0  0  0  0  0  0  0
    5.4160    9.3640   16.3630 C   0  0  0  0  0  0  0  0  0  0  0  0
    3.7010    8.8420   13.6720 C   0  0  0  0  0  0  0  0  0  0  0  0
    3.8620    7.9070   14.4610 O   0  0  0  0  0  0  0  0  0  0  0  0
    2.7620    8.8030   12.6060 N   0  0  0  0  0  0  0  0  0  0  0  0
    1.9060    7.6470   12.5390 C   0  0  0  0  0  0  0  0  0  0  0  0
    2.3480    6.4820   11.9000 C   0  0  0  0  0  0  0  0  0  0  0  0
    1.6370    5.2880   12.0360 C   0  0  0  0  0  0  0  0  0  0  0  0
    0.4510    5.2600   12.7660 C   0  0  0  0  0  0  0  0  0  0  0  0
   -0.0490    6.4340   13.3230 C   0  0  0  0  0  0  0  0  0  0  0  0
    0.6690    7.6270   13.2000 C   0  0  0  0  0  0  0  0  0  0  0  0
    1.2930    8.6990    9.9870 N   0  0  0  0  0  0  0  0  0  0  0  0
    1.1790    8.7970    8.6030 C   0  0  0  0  0  0  0  0  0  0  0  0
    1.4350    9.9890    8.0300 N   0  0  0  0  0  0  0  0  0  0  0  0
    1.2750   10.1090    6.6920 C   0  0  0  0  0  0  0  0  0  0  0  0
    0.8450    9.1880    5.8200 N   0  0  0  0  0  0  0  0  0  0  0  0
    0.5500    8.0210    6.4170 C   0  0  0  0  0  0  0  0  0  0  0  0
    0.6990    7.8020    7.7740 C   0  0  0  0  0  0  0  0  0  0  0  0
    0.2630    6.5210    7.9600 N   0  0  0  0  0  0  0  0  0  0  0  0
   -0.0890    6.0160    6.7400 C   0  0  0  0  0  0  0  0  0  0  0  0
    0.0660    6.9060    5.7850 N   0  0  0  0  0  0  0  0  0  0  0  0
    0.2140   11.0450   12.2020 H   0  0  0  0  0  0  0  0  0  0  0  0
   -0.2400    9.3330   12.0190 H   0  0  0  0  0  0  0  0  0  0  0  0
   -0.6750   10.4910   10.7750 H   0  0  0  0  0  0  0  0  0  0  0  0
    1.5090   10.7770   10.0160 H   0  0  0  0  0  0  0  0  0  0  0  0
    3.4370   11.7240   11.0360 H   0  0  0  0  0  0  0  0  0  0  0  0
    6.7480   11.7280   15.8500 H   0  0  0  0  0  0  0  0  0  0  0  0
    6.7350   13.3070   13.9530 H   0  0  0  0  0  0  0  0  0  0  0  0
    5.2890   12.8810   12.0060 H   0  0  0  0  0  0  0  0  0  0  0  0
    3.2830    6.4700   11.3450 H   0  0  0  0  0  0  0  0  0  0  0  0
    2.0300    4.3760   11.5920 H   0  0  0  0  0  0  0  0  0  0  0  0
   -0.0840    4.3220   12.8940 H   0  0  0  0  0  0  0  0  0  0  0  0
   -0.9860    6.4170   13.8730 H   0  0  0  0  0  0  0  0  0  0  0  0
    0.2690    8.5320   13.6470 H   0  0  0  0  0  0  0  0  0  0  0  0
    0.4580    8.1990   10.2890 H   0  0  0  0  0  0  0  0  0  0  0  0
    1.5200   11.0790    6.2720 H   0  0  0  0  0  0  0  0  0  0  0  0
    0.2310    6.0360    8.8440 H   0  0  0  0  0  0  0  0  0  0  0  0
   -0.4480    5.0030    6.6090 H   0  0  0  0  0  0  0  0  0  0  0  0
  1 32  1  0  0  0  0
  1 31  1  0  0  0  0
  2 34  1  6  0  0  0
  2  1  1  0  0  0  0
  2  3  1  0  0  0  0
  3  4  2  0  0  0  0
  3 14  1  0  0  0  0
  4  5  1  0  0  0  0
  5 10  2  0  0  0  0
  5  6  1  0  0  0  0
  6  7  2  0  0  0  0
  7  8  1  0  0  0  0
  7 11  1  0  0  0  0
  8 36  1  0  0  0  0
  9 37  1  0  0  0  0
  9  8  2  0  0  0  0
 10  9  1  0  0  0  0
 12  6  1  0  0  0  0
 12 13  2  0  0  0  0
 14 12  1  0  0  0  0
 15 14  1  0  0  0  0
 15 20  1  0  0  0  0
 16 17  1  0  0  0  0
 16 15  2  0  0  0  0
 17 18  2  0  0  0  0
 18 41  1  0  0  0  0
 18 19  1  0  0  0  0
 19 42  1  0  0  0  0
 20 19  2  0  0  0  0
 20 43  1  0  0  0  0
 21 44  1  0  0  0  0
 21  2  1  0  0  0  0
 22 21  1  0  0  0  0
 23 22  1  0  0  0  0
 24 23  2  0  0  0  0
 25 26  2  0  0  0  0
 25 24  1  0  0  0  0
 26 27  1  0  0  0  0
 27 28  1  0  0  0  0
 27 22  2  0  0  0  0
 28 46  1  0  0  0  0
 29 28  1  0  0  0  0
 30 26  1  0  0  0  0
 30 29  2  0  0  0  0
 33  1  1  0  0  0  0
 35  4  1  0  0  0  0
 38 10  1  0  0  0  0
 39 16  1  0  0  0  0
 40 17  1  0  0  0  0
 45 24  1  0  0  0  0
 47 29  1  0  0  0  0
M  END
>  <Pose>
1

>  <Score>
-6.64

$$$$
