1XOZ


 29 34  0  0  0  0  0  0  0  0999 V2000
   39.4541   31.3905   33.4077 C   0  0  0  0  0  0  0  0  0  0  0  0
   39.4206   31.6451   34.7690 C   0  0  0  0  0  0  0  0  0  0  0  0
   38.3098   31.3814   35.6149 C   0  0  0  0  0  0  0  0  0  0  0  0
   37.1325   30.8212   35.0690 C   0  0  0  0  0  0  0  0  0  0  0  0
   37.1602   30.5641   33.7089 C   0  0  0  0  0  0  0  0  0  0  0  0
   38.2701   30.8327   32.8944 C   0  0  0  0  0  0  0  0  0  0  0  0
   37.9001   30.4255   31.5312 C   0  0  0  0  0  0  0  0  0  0  0  0
   36.6310   29.9577   31.6384 C   0  0  0  0  0  0  0  0  0  0  0  0
   36.2036   30.0342   32.8855 N   0  0  0  0  0  0  0  0  0  0  0  0
   38.6948   30.4861   30.2573 C   0  0  0  0  0  0  0  0  0  0  0  0
   38.1870   29.4460   29.2501 C   0  0  0  0  0  0  0  0  0  0  0  0
   36.7416   29.1977   29.2823 N   0  0  0  0  0  0  0  0  0  0  0  0
   35.9143   29.4537   30.4488 C   0  0  0  0  0  0  0  0  0  0  0  0
   38.1899   28.9348   26.8658 N   0  0  0  0  0  0  0  0  0  0  0  0
   36.8422   28.3822   27.0001 C   0  0  0  0  0  0  0  0  0  0  0  0
   36.0903   28.6772   28.2201 C   0  0  0  0  0  0  0  0  0  0  0  0
   38.8481   28.9368   25.5722 C   0  0  0  0  0  0  0  0  0  0  0  0
   34.9094   28.4387   28.2051 O   0  0  0  0  0  0  0  0  0  0  0  0
   38.8452   29.4323   27.9068 C   0  0  0  0  0  0  0  0  0  0  0  0
   39.9910   29.9091   27.8618 O   0  0  0  0  0  0  0  0  0  0  0  0
   34.7829   30.5132   30.2090 C   0  0  0  0  0  0  0  0  0  0  0  0
   33.6513   30.5592   31.0068 C   0  0  0  0  0  0  0  0  0  0  0  0
   32.6802   31.5272   30.7414 C   0  0  0  0  0  0  0  0  0  0  0  0
   32.8158   32.4184   29.7241 C   0  0  0  0  0  0  0  0  0  0  0  0
   33.9180   32.4160   28.9000 C   0  0  0  0  0  0  0  0  0  0  0  0
   34.8821   31.4659   29.1570 C   0  0  0  0  0  0  0  0  0  0  0  0
   31.5067   31.7108   31.4289 O   0  0  0  0  0  0  0  0  0  0  0  0
   31.0909   33.0050   30.9011 C   0  0  0  0  0  0  0  0  0  0  0  0
   31.7433   33.2596   29.6618 O   0  0  0  0  0  0  0  0  0  0  0  0
  1  6  2  0  0  0
  1  2  1  0  0  0
  2  3  1  0  0  0
  3  4  2  0  0  0
  4  5  1  0  0  0
  5  6  1  0  0  0
  6  7  1  0  0  0
  7  8  2  0  0  0
  7 10  1  0  0  0
  8  9  1  0  0  0
  8 13  1  0  0  0
  5  9  2  0  0  0
 10 11  1  0  0  0
 11 12  1  0  0  0
 12 16  1  0  0  0
 12 13  1  0  0  0
 13 21  1  0  0  0
 14 17  1  0  0  0
 14 19  1  0  0  0
 14 15  1  0  0  0
 15 16  1  0  0  0
 16 18  2  0  0  0
 21 22  2  0  0  0
 21 26  1  0  0  0
 22 23  1  0  0  0
 23 24  2  0  0  0
 24 29  1  0  0  0
 24 25  1  0  0  0
 25 26  2  0  0  0
 23 27  1  0  0  0
 27 28  1  0  0  0
 28 29  1  0  0  0
 11 19  1  0  0  0
 19 20  2  0  0  0
M  END
> <minimizedAffinity>
10.74394

$$$$
