1XOZ


 29 34  0  0  0  0  0  0  0  0999 V2000
   39.0290   30.4945   -4.0230 C   0  0  0  0  0  0  0  0  0  0  0  0
   39.7854   29.6417   -4.8104 C   0  0  0  0  0  0  0  0  0  0  0  0
   39.2998   28.9510   -5.9532 C   0  0  0  0  0  0  0  0  0  0  0  0
   37.9531   29.1151   -6.3498 C   0  0  0  0  0  0  0  0  0  0  0  0
   37.1923   29.9667   -5.5670 C   0  0  0  0  0  0  0  0  0  0  0  0
   37.6951   30.6384   -4.4429 C   0  0  0  0  0  0  0  0  0  0  0  0
   36.5845   31.4298   -3.8940 C   0  0  0  0  0  0  0  0  0  0  0  0
   35.5341   31.1740   -4.7140 C   0  0  0  0  0  0  0  0  0  0  0  0
   35.8788   30.3367   -5.6751 N   0  0  0  0  0  0  0  0  0  0  0  0
   36.5463   32.3378   -2.6973 C   0  0  0  0  0  0  0  0  0  0  0  0
   35.4316   33.3821   -2.8429 C   0  0  0  0  0  0  0  0  0  0  0  0
   34.2248   32.9165   -3.5348 N   0  0  0  0  0  0  0  0  0  0  0  0
   34.2203   31.8036   -4.4687 C   0  0  0  0  0  0  0  0  0  0  0  0
   34.0521   34.9007   -1.5250 N   0  0  0  0  0  0  0  0  0  0  0  0
   32.9404   34.6619   -2.4452 C   0  0  0  0  0  0  0  0  0  0  0  0
   33.0327   33.5274   -3.3645 C   0  0  0  0  0  0  0  0  0  0  0  0
   33.8827   35.8024   -0.4003 C   0  0  0  0  0  0  0  0  0  0  0  0
   32.0192   33.1937   -3.9239 O   0  0  0  0  0  0  0  0  0  0  0  0
   35.2327   34.3191   -1.6939 C   0  0  0  0  0  0  0  0  0  0  0  0
   36.2169   34.4841   -0.9547 O   0  0  0  0  0  0  0  0  0  0  0  0
   33.3012   30.6093   -4.0341 C   0  0  0  0  0  0  0  0  0  0  0  0
   33.4392   30.0006   -2.7973 C   0  0  0  0  0  0  0  0  0  0  0  0
   32.5893   28.9418   -2.4702 C   0  0  0  0  0  0  0  0  0  0  0  0
   31.6373   28.4945   -3.3313 C   0  0  0  0  0  0  0  0  0  0  0  0
   31.4586   29.0612   -4.5727 C   0  0  0  0  0  0  0  0  0  0  0  0
   32.2912   30.1083   -4.9019 C   0  0  0  0  0  0  0  0  0  0  0  0
   32.5906   28.2317   -1.2958 O   0  0  0  0  0  0  0  0  0  0  0  0
   31.3339   27.5034   -1.4260 C   0  0  0  0  0  0  0  0  0  0  0  0
   30.9361   27.4558   -2.7919 O   0  0  0  0  0  0  0  0  0  0  0  0
  1  6  2  0  0  0
  1  2  1  0  0  0
  2  3  1  0  0  0
  3  4  2  0  0  0
  4  5  1  0  0  0
  5  6  1  0  0  0
  6  7  1  0  0  0
  7  8  2  0  0  0
  7 10  1  0  0  0
  8  9  1  0  0  0
  8 13  1  0  0  0
  5  9  2  0  0  0
 10 11  1  0  0  0
 11 12  1  0  0  0
 12 16  1  0  0  0
 12 13  1  0  0  0
 13 21  1  0  0  0
 14 17  1  0  0  0
 14 19  1  0  0  0
 14 15  1  0  0  0
 15 16  1  0  0  0
 16 18  2  0  0  0
 21 22  2  0  0  0
 21 26  1  0  0  0
 22 23  1  0  0  0
 23 24  2  0  0  0
 24 29  1  0  0  0
 24 25  1  0  0  0
 25 26  2  0  0  0
 23 27  1  0  0  0
 27 28  1  0  0  0
 28 29  1  0  0  0
 11 19  1  0  0  0
 19 20  2  0  0  0
M  END
> <minimizedAffinity>
-6.25741

$$$$
1XOZ


 29 34  0  0  0  0  0  0  0  0999 V2000
   36.9744   30.7939   -2.9884 C   0  0  0  0  0  0  0  0  0  0  0  0
   35.8653   31.5533   -2.6529 C   0  0  0  0  0  0  0  0  0  0  0  0
   35.3116   32.5800   -3.4642 C   0  0  0  0  0  0  0  0  0  0  0  0
   35.9053   32.8832   -4.7106 C   0  0  0  0  0  0  0  0  0  0  0  0
   37.0138   32.1272   -5.0516 C   0  0  0  0  0  0  0  0  0  0  0  0
   37.5417   31.1176   -4.2333 C   0  0  0  0  0  0  0  0  0  0  0  0
   38.7038   30.5647   -4.9439 C   0  0  0  0  0  0  0  0  0  0  0  0
   38.7747   31.2705   -6.1005 C   0  0  0  0  0  0  0  0  0  0  0  0
   37.8069   32.1664   -6.1667 N   0  0  0  0  0  0  0  0  0  0  0  0
   39.6482   29.4674   -4.5411 C   0  0  0  0  0  0  0  0  0  0  0  0
   40.2967   28.8281   -5.7760 C   0  0  0  0  0  0  0  0  0  0  0  0
   40.5623   29.7461   -6.8889 N   0  0  0  0  0  0  0  0  0  0  0  0
   39.8392   30.9906   -7.0861 C   0  0  0  0  0  0  0  0  0  0  0  0
   42.2299   27.5029   -6.4488 N   0  0  0  0  0  0  0  0  0  0  0  0
   42.2663   28.2313   -7.7168 C   0  0  0  0  0  0  0  0  0  0  0  0
   41.4898   29.4662   -7.8296 C   0  0  0  0  0  0  0  0  0  0  0  0
   43.2066   26.4633   -6.1805 C   0  0  0  0  0  0  0  0  0  0  0  0
   41.7304   30.1789   -8.7708 O   0  0  0  0  0  0  0  0  0  0  0  0
   41.3118   27.7582   -5.5255 C   0  0  0  0  0  0  0  0  0  0  0  0
   41.2218   27.1731   -4.4338 O   0  0  0  0  0  0  0  0  0  0  0  0
   40.7457   32.2698   -7.0406 C   0  0  0  0  0  0  0  0  0  0  0  0
   41.7159   32.4369   -6.0660 C   0  0  0  0  0  0  0  0  0  0  0  0
   42.4907   33.5988   -6.0806 C   0  0  0  0  0  0  0  0  0  0  0  0
   42.3155   34.5654   -7.0202 C   0  0  0  0  0  0  0  0  0  0  0  0
   41.3653   34.4515   -8.0092 C   0  0  0  0  0  0  0  0  0  0  0  0
   40.5987   33.3068   -8.0036 C   0  0  0  0  0  0  0  0  0  0  0  0
   43.4878   33.9218   -5.1947 O   0  0  0  0  0  0  0  0  0  0  0  0
   44.0979   35.0526   -5.8843 C   0  0  0  0  0  0  0  0  0  0  0  0
   43.1838   35.6002   -6.8281 O   0  0  0  0  0  0  0  0  0  0  0  0
  1  6  2  0  0  0
  1  2  1  0  0  0
  2  3  1  0  0  0
  3  4  2  0  0  0
  4  5  1  0  0  0
  5  6  1  0  0  0
  6  7  1  0  0  0
  7  8  2  0  0  0
  7 10  1  0  0  0
  8  9  1  0  0  0
  8 13  1  0  0  0
  5  9  2  0  0  0
 10 11  1  0  0  0
 11 12  1  0  0  0
 12 16  1  0  0  0
 12 13  1  0  0  0
 13 21  1  0  0  0
 14 17  1  0  0  0
 14 19  1  0  0  0
 14 15  1  0  0  0
 15 16  1  0  0  0
 16 18  2  0  0  0
 21 22  2  0  0  0
 21 26  1  0  0  0
 22 23  1  0  0  0
 23 24  2  0  0  0
 24 29  1  0  0  0
 24 25  1  0  0  0
 25 26  2  0  0  0
 23 27  1  0  0  0
 27 28  1  0  0  0
 28 29  1  0  0  0
 11 19  1  0  0  0
 19 20  2  0  0  0
M  END
> <minimizedAffinity>
-5.79883

$$$$
1XOZ


 29 34  0  0  0  0  0  0  0  0999 V2000
   30.9398   29.7209   -4.9181 C   0  0  0  0  0  0  0  0  0  0  0  0
   30.6431   28.3801   -5.1011 C   0  0  0  0  0  0  0  0  0  0  0  0
   31.4661   27.3032   -4.6746 C   0  0  0  0  0  0  0  0  0  0  0  0
   32.6858   27.5743   -4.0138 C   0  0  0  0  0  0  0  0  0  0  0  0
   32.9876   28.9126   -3.8275 C   0  0  0  0  0  0  0  0  0  0  0  0
   32.1577   29.9586   -4.2574 C   0  0  0  0  0  0  0  0  0  0  0  0
   32.8281   31.2107   -3.8779 C   0  0  0  0  0  0  0  0  0  0  0  0
   33.9755   30.8216   -3.2669 C   0  0  0  0  0  0  0  0  0  0  0  0
   34.0700   29.5050   -3.2348 N   0  0  0  0  0  0  0  0  0  0  0  0
   32.4007   32.6358   -4.0884 C   0  0  0  0  0  0  0  0  0  0  0  0
   33.0508   33.5574   -3.0481 C   0  0  0  0  0  0  0  0  0  0  0  0
   34.4080   33.1796   -2.6390 N   0  0  0  0  0  0  0  0  0  0  0  0
   34.9248   31.8259   -2.7444 C   0  0  0  0  0  0  0  0  0  0  0  0
   33.6178   35.8965   -2.6565 N   0  0  0  0  0  0  0  0  0  0  0  0
   34.8256   35.4678   -1.9513 C   0  0  0  0  0  0  0  0  0  0  0  0
   35.2598   34.0787   -2.1012 C   0  0  0  0  0  0  0  0  0  0  0  0
   33.3210   37.3105   -2.7945 C   0  0  0  0  0  0  0  0  0  0  0  0
   36.3759   33.8125   -1.7335 O   0  0  0  0  0  0  0  0  0  0  0  0
   32.7655   35.0205   -3.1730 C   0  0  0  0  0  0  0  0  0  0  0  0
   31.7214   35.3177   -3.7762 O   0  0  0  0  0  0  0  0  0  0  0  0
   36.1753   31.6911   -3.6815 C   0  0  0  0  0  0  0  0  0  0  0  0
   37.3349   31.0626   -3.2579 C   0  0  0  0  0  0  0  0  0  0  0  0
   38.4134   30.9751   -4.1407 C   0  0  0  0  0  0  0  0  0  0  0  0
   38.3550   31.4907   -5.3971 C   0  0  0  0  0  0  0  0  0  0  0  0
   37.2292   32.1268   -5.8682 C   0  0  0  0  0  0  0  0  0  0  0  0
   36.1596   32.2148   -5.0043 C   0  0  0  0  0  0  0  0  0  0  0  0
   39.6281   30.3901   -3.8842 O   0  0  0  0  0  0  0  0  0  0  0  0
   40.1890   30.3448   -5.2295 C   0  0  0  0  0  0  0  0  0  0  0  0
   39.5256   31.2852   -6.0673 O   0  0  0  0  0  0  0  0  0  0  0  0
  1  6  2  0  0  0
  1  2  1  0  0  0
  2  3  1  0  0  0
  3  4  2  0  0  0
  4  5  1  0  0  0
  5  6  1  0  0  0
  6  7  1  0  0  0
  7  8  2  0  0  0
  7 10  1  0  0  0
  8  9  1  0  0  0
  8 13  1  0  0  0
  5  9  2  0  0  0
 10 11  1  0  0  0
 11 12  1  0  0  0
 12 16  1  0  0  0
 12 13  1  0  0  0
 13 21  1  0  0  0
 14 17  1  0  0  0
 14 19  1  0  0  0
 14 15  1  0  0  0
 15 16  1  0  0  0
 16 18  2  0  0  0
 21 22  2  0  0  0
 21 26  1  0  0  0
 22 23  1  0  0  0
 23 24  2  0  0  0
 24 29  1  0  0  0
 24 25  1  0  0  0
 25 26  2  0  0  0
 23 27  1  0  0  0
 27 28  1  0  0  0
 28 29  1  0  0  0
 11 19  1  0  0  0
 19 20  2  0  0  0
M  END
> <minimizedAffinity>
-5.59775

$$$$
1XOZ


 29 34  0  0  0  0  0  0  0  0999 V2000
   33.8201   34.6884   -2.0156 C   0  0  0  0  0  0  0  0  0  0  0  0
   33.9371   36.0646   -1.9084 C   0  0  0  0  0  0  0  0  0  0  0  0
   34.6024   36.8962   -2.8491 C   0  0  0  0  0  0  0  0  0  0  0  0
   35.2043   36.3188   -3.9903 C   0  0  0  0  0  0  0  0  0  0  0  0
   35.0901   34.9437   -4.1031 C   0  0  0  0  0  0  0  0  0  0  0  0
   34.4272   34.1438   -3.1606 C   0  0  0  0  0  0  0  0  0  0  0  0
   34.5316   32.7572   -3.6378 C   0  0  0  0  0  0  0  0  0  0  0  0
   35.2307   32.8384   -4.7979 C   0  0  0  0  0  0  0  0  0  0  0  0
   35.5516   34.0903   -5.0688 N   0  0  0  0  0  0  0  0  0  0  0  0
   34.0094   31.4861   -3.0299 C   0  0  0  0  0  0  0  0  0  0  0  0
   33.8121   30.4102   -4.1060 C   0  0  0  0  0  0  0  0  0  0  0  0
   34.7889   30.4334   -5.2001 N   0  0  0  0  0  0  0  0  0  0  0  0
   35.5382   31.6203   -5.5751 C   0  0  0  0  0  0  0  0  0  0  0  0
   33.6102   27.9955   -4.3792 N   0  0  0  0  0  0  0  0  0  0  0  0
   34.3169   28.0982   -5.6559 C   0  0  0  0  0  0  0  0  0  0  0  0
   35.0287   29.3407   -5.9564 C   0  0  0  0  0  0  0  0  0  0  0  0
   33.1594   26.7014   -3.9010 C   0  0  0  0  0  0  0  0  0  0  0  0
   35.8067   29.3159   -6.8760 O   0  0  0  0  0  0  0  0  0  0  0  0
   33.3541   29.0655   -3.6374 C   0  0  0  0  0  0  0  0  0  0  0  0
   32.7542   29.0477   -2.5502 O   0  0  0  0  0  0  0  0  0  0  0  0
   37.0928   31.4636   -5.4377 C   0  0  0  0  0  0  0  0  0  0  0  0
   37.9594   31.9580   -6.3989 C   0  0  0  0  0  0  0  0  0  0  0  0
   39.3335   31.7864   -6.2176 C   0  0  0  0  0  0  0  0  0  0  0  0
   39.8386   31.1475   -5.1292 C   0  0  0  0  0  0  0  0  0  0  0  0
   39.0233   30.6354   -4.1458 C   0  0  0  0  0  0  0  0  0  0  0  0
   37.6665   30.8032   -4.3157 C   0  0  0  0  0  0  0  0  0  0  0  0
   40.3245   32.2112   -7.0667 O   0  0  0  0  0  0  0  0  0  0  0  0
   41.4967   32.0224   -6.2200 C   0  0  0  0  0  0  0  0  0  0  0  0
   41.2015   31.1021   -5.1750 O   0  0  0  0  0  0  0  0  0  0  0  0
  1  6  2  0  0  0
  1  2  1  0  0  0
  2  3  1  0  0  0
  3  4  2  0  0  0
  4  5  1  0  0  0
  5  6  1  0  0  0
  6  7  1  0  0  0
  7  8  2  0  0  0
  7 10  1  0  0  0
  8  9  1  0  0  0
  8 13  1  0  0  0
  5  9  2  0  0  0
 10 11  1  0  0  0
 11 12  1  0  0  0
 12 16  1  0  0  0
 12 13  1  0  0  0
 13 21  1  0  0  0
 14 17  1  0  0  0
 14 19  1  0  0  0
 14 15  1  0  0  0
 15 16  1  0  0  0
 16 18  2  0  0  0
 21 22  2  0  0  0
 21 26  1  0  0  0
 22 23  1  0  0  0
 23 24  2  0  0  0
 24 29  1  0  0  0
 24 25  1  0  0  0
 25 26  2  0  0  0
 23 27  1  0  0  0
 27 28  1  0  0  0
 28 29  1  0  0  0
 11 19  1  0  0  0
 19 20  2  0  0  0
M  END
> <minimizedAffinity>
-5.18184

$$$$
1XOZ


 29 34  0  0  0  0  0  0  0  0999 V2000
   33.9761   30.9527   -5.5758 C   0  0  0  0  0  0  0  0  0  0  0  0
   33.1375   29.8574   -5.4476 C   0  0  0  0  0  0  0  0  0  0  0  0
   31.9727   29.8203   -4.6347 C   0  0  0  0  0  0  0  0  0  0  0  0
   31.6075   30.9607   -3.8837 C   0  0  0  0  0  0  0  0  0  0  0  0
   32.4415   32.0587   -4.0081 C   0  0  0  0  0  0  0  0  0  0  0  0
   33.5864   32.0711   -4.8185 C   0  0  0  0  0  0  0  0  0  0  0  0
   34.1901   33.4036   -4.6735 C   0  0  0  0  0  0  0  0  0  0  0  0
   33.3775   34.0635   -3.8102 C   0  0  0  0  0  0  0  0  0  0  0  0
   32.3732   33.2964   -3.4275 N   0  0  0  0  0  0  0  0  0  0  0  0
   35.4277   33.9758   -5.3052 C   0  0  0  0  0  0  0  0  0  0  0  0
   35.3494   35.5069   -5.3643 C   0  0  0  0  0  0  0  0  0  0  0  0
   34.6578   36.1419   -4.2372 N   0  0  0  0  0  0  0  0  0  0  0  0
   33.6740   35.4564   -3.4168 C   0  0  0  0  0  0  0  0  0  0  0  0
   36.7592   37.4856   -5.5732 N   0  0  0  0  0  0  0  0  0  0  0  0
   35.8483   38.2073   -4.6848 C   0  0  0  0  0  0  0  0  0  0  0  0
   34.8765   37.4340   -3.9113 C   0  0  0  0  0  0  0  0  0  0  0  0
   37.9269   38.1556   -6.1156 C   0  0  0  0  0  0  0  0  0  0  0  0
   34.3199   38.0038   -3.0074 O   0  0  0  0  0  0  0  0  0  0  0  0
   36.5435   36.2214   -5.9135 C   0  0  0  0  0  0  0  0  0  0  0  0
   37.2723   35.5553   -6.6668 O   0  0  0  0  0  0  0  0  0  0  0  0
   34.0692   35.3482   -1.9028 C   0  0  0  0  0  0  0  0  0  0  0  0
   33.1663   35.6440   -0.8946 C   0  0  0  0  0  0  0  0  0  0  0  0
   33.5801   35.5277    0.4342 C   0  0  0  0  0  0  0  0  0  0  0  0
   34.8402   35.1364    0.7609 C   0  0  0  0  0  0  0  0  0  0  0  0
   35.7773   34.8328   -0.2002 C   0  0  0  0  0  0  0  0  0  0  0  0
   35.3761   34.9422   -1.5137 C   0  0  0  0  0  0  0  0  0  0  0  0
   32.8185   35.7804    1.5475 O   0  0  0  0  0  0  0  0  0  0  0  0
   33.6685   35.2075    2.5848 C   0  0  0  0  0  0  0  0  0  0  0  0
   35.0076   35.0995    2.1145 O   0  0  0  0  0  0  0  0  0  0  0  0
  1  6  2  0  0  0
  1  2  1  0  0  0
  2  3  1  0  0  0
  3  4  2  0  0  0
  4  5  1  0  0  0
  5  6  1  0  0  0
  6  7  1  0  0  0
  7  8  2  0  0  0
  7 10  1  0  0  0
  8  9  1  0  0  0
  8 13  1  0  0  0
  5  9  2  0  0  0
 10 11  1  0  0  0
 11 12  1  0  0  0
 12 16  1  0  0  0
 12 13  1  0  0  0
 13 21  1  0  0  0
 14 17  1  0  0  0
 14 19  1  0  0  0
 14 15  1  0  0  0
 15 16  1  0  0  0
 16 18  2  0  0  0
 21 22  2  0  0  0
 21 26  1  0  0  0
 22 23  1  0  0  0
 23 24  2  0  0  0
 24 29  1  0  0  0
 24 25  1  0  0  0
 25 26  2  0  0  0
 23 27  1  0  0  0
 27 28  1  0  0  0
 28 29  1  0  0  0
 11 19  1  0  0  0
 19 20  2  0  0  0
M  END
> <minimizedAffinity>
-5.17704

$$$$
