1XOZ


 29 34  0  0  0  0  0  0  0  0999 V2000
   30.0489   36.8132    1.6932 C   0  0  0  0  0  0  0  0  0  0  0  0
   29.7124   36.1711    2.8737 C   0  0  0  0  0  0  0  0  0  0  0  0
   30.5639   35.2814    3.5825 C   0  0  0  0  0  0  0  0  0  0  0  0
   31.8555   35.0012    3.0813 C   0  0  0  0  0  0  0  0  0  0  0  0
   32.1976   35.6405    1.9019 C   0  0  0  0  0  0  0  0  0  0  0  0
   31.3391   36.5158    1.2206 C   0  0  0  0  0  0  0  0  0  0  0  0
   32.0659   36.9748    0.0280 C   0  0  0  0  0  0  0  0  0  0  0  0
   33.2701   36.3527    0.0915 C   0  0  0  0  0  0  0  0  0  0  0  0
   33.3501   35.5879    1.1650 N   0  0  0  0  0  0  0  0  0  0  0  0
   31.6357   37.9171   -1.0606 C   0  0  0  0  0  0  0  0  0  0  0  0
   32.8542   38.5624   -1.7336 C   0  0  0  0  0  0  0  0  0  0  0  0
   34.0387   37.7034   -1.8387 N   0  0  0  0  0  0  0  0  0  0  0  0
   34.2848   36.5735   -0.9593 C   0  0  0  0  0  0  0  0  0  0  0  0
   33.5283   39.6898   -3.7881 N   0  0  0  0  0  0  0  0  0  0  0  0
   34.8433   39.0577   -3.6832 C   0  0  0  0  0  0  0  0  0  0  0  0
   35.0021   37.9375   -2.7555 C   0  0  0  0  0  0  0  0  0  0  0  0
   33.2375   40.5810   -4.8962 C   0  0  0  0  0  0  0  0  0  0  0  0
   36.0002   37.2722   -2.8680 O   0  0  0  0  0  0  0  0  0  0  0  0
   32.5810   39.4802   -2.8829 C   0  0  0  0  0  0  0  0  0  0  0  0
   31.4489   39.9899   -2.9099 O   0  0  0  0  0  0  0  0  0  0  0  0
   34.3708   35.1942   -1.7011 C   0  0  0  0  0  0  0  0  0  0  0  0
   35.4776   34.3706   -1.5750 C   0  0  0  0  0  0  0  0  0  0  0  0
   35.4926   33.1544   -2.2614 C   0  0  0  0  0  0  0  0  0  0  0  0
   34.4555   32.7624   -3.0478 C   0  0  0  0  0  0  0  0  0  0  0  0
   33.3332   33.5423   -3.2099 C   0  0  0  0  0  0  0  0  0  0  0  0
   33.3093   34.7424   -2.5337 C   0  0  0  0  0  0  0  0  0  0  0  0
   36.5032   32.2260   -2.2477 O   0  0  0  0  0  0  0  0  0  0  0  0
   35.8304   31.0938   -2.8739 C   0  0  0  0  0  0  0  0  0  0  0  0
   34.7004   31.5448   -3.6128 O   0  0  0  0  0  0  0  0  0  0  0  0
  1  6  2  0  0  0
  1  2  1  0  0  0
  2  3  1  0  0  0
  3  4  2  0  0  0
  4  5  1  0  0  0
  5  6  1  0  0  0
  6  7  1  0  0  0
  7  8  2  0  0  0
  7 10  1  0  0  0
  8  9  1  0  0  0
  8 13  1  0  0  0
  5  9  2  0  0  0
 10 11  1  0  0  0
 11 12  1  0  0  0
 12 16  1  0  0  0
 12 13  1  0  0  0
 13 21  1  0  0  0
 14 17  1  0  0  0
 14 19  1  0  0  0
 14 15  1  0  0  0
 15 16  1  0  0  0
 16 18  2  0  0  0
 21 22  2  0  0  0
 21 26  1  0  0  0
 22 23  1  0  0  0
 23 24  2  0  0  0
 24 29  1  0  0  0
 24 25  1  0  0  0
 25 26  2  0  0  0
 23 27  1  0  0  0
 27 28  1  0  0  0
 28 29  1  0  0  0
 11 19  1  0  0  0
 19 20  2  0  0  0
M  END
> <minimizedAffinity>
-7.30104

$$$$
1XOZ


 29 34  0  0  0  0  0  0  0  0999 V2000
   33.2194   35.3163    2.7121 C   0  0  0  0  0  0  0  0  0  0  0  0
   34.3549   35.1474    1.9367 C   0  0  0  0  0  0  0  0  0  0  0  0
   34.4090   35.3330    0.5290 C   0  0  0  0  0  0  0  0  0  0  0  0
   33.2423   35.7156   -0.1714 C   0  0  0  0  0  0  0  0  0  0  0  0
   32.1044   35.8864    0.5984 C   0  0  0  0  0  0  0  0  0  0  0  0
   32.0762   35.6977    1.9880 C   0  0  0  0  0  0  0  0  0  0  0  0
   30.6985   35.9707    2.4220 C   0  0  0  0  0  0  0  0  0  0  0  0
   30.0312   36.2928    1.2852 C   0  0  0  0  0  0  0  0  0  0  0  0
   30.8339   36.2469    0.2378 N   0  0  0  0  0  0  0  0  0  0  0  0
   30.0924   35.9218    3.7962 C   0  0  0  0  0  0  0  0  0  0  0  0
   28.8575   36.8287    3.8780 C   0  0  0  0  0  0  0  0  0  0  0  0
   28.0571   36.9078    2.6512 N   0  0  0  0  0  0  0  0  0  0  0  0
   28.5940   36.6321    1.3296 C   0  0  0  0  0  0  0  0  0  0  0  0
   26.8302   37.1827    5.1860 N   0  0  0  0  0  0  0  0  0  0  0  0
   26.1320   37.5814    3.9640 C   0  0  0  0  0  0  0  0  0  0  0  0
   26.7592   37.2794    2.6772 C   0  0  0  0  0  0  0  0  0  0  0  0
   26.1257   37.1748    6.4550 C   0  0  0  0  0  0  0  0  0  0  0  0
   26.0670   37.3767    1.6958 O   0  0  0  0  0  0  0  0  0  0  0  0
   28.1101   36.8330    5.1738 C   0  0  0  0  0  0  0  0  0  0  0  0
   28.7617   36.4916    6.1744 O   0  0  0  0  0  0  0  0  0  0  0  0
   27.8974   35.4344    0.5947 C   0  0  0  0  0  0  0  0  0  0  0  0
   27.5318   34.2821    1.2712 C   0  0  0  0  0  0  0  0  0  0  0  0
   26.9144   33.2514    0.5591 C   0  0  0  0  0  0  0  0  0  0  0  0
   26.6673   33.3491   -0.7739 C   0  0  0  0  0  0  0  0  0  0  0  0
   27.0115   34.4697   -1.4949 C   0  0  0  0  0  0  0  0  0  0  0  0
   27.6183   35.4924   -0.7992 C   0  0  0  0  0  0  0  0  0  0  0  0
   26.4912   32.0503    1.0708 O   0  0  0  0  0  0  0  0  0  0  0  0
   25.6889   31.5568   -0.0425 C   0  0  0  0  0  0  0  0  0  0  0  0
   26.0611   32.2212   -1.2451 O   0  0  0  0  0  0  0  0  0  0  0  0
  1  6  2  0  0  0
  1  2  1  0  0  0
  2  3  1  0  0  0
  3  4  2  0  0  0
  4  5  1  0  0  0
  5  6  1  0  0  0
  6  7  1  0  0  0
  7  8  2  0  0  0
  7 10  1  0  0  0
  8  9  1  0  0  0
  8 13  1  0  0  0
  5  9  2  0  0  0
 10 11  1  0  0  0
 11 12  1  0  0  0
 12 16  1  0  0  0
 12 13  1  0  0  0
 13 21  1  0  0  0
 14 17  1  0  0  0
 14 19  1  0  0  0
 14 15  1  0  0  0
 15 16  1  0  0  0
 16 18  2  0  0  0
 21 22  2  0  0  0
 21 26  1  0  0  0
 22 23  1  0  0  0
 23 24  2  0  0  0
 24 29  1  0  0  0
 24 25  1  0  0  0
 25 26  2  0  0  0
 23 27  1  0  0  0
 27 28  1  0  0  0
 28 29  1  0  0  0
 11 19  1  0  0  0
 19 20  2  0  0  0
M  END
> <minimizedAffinity>
-6.98077

$$$$
1XOZ


 29 34  0  0  0  0  0  0  0  0999 V2000
   25.0609   30.9788    3.4694 C   0  0  0  0  0  0  0  0  0  0  0  0
   23.8690   30.2937    3.2982 C   0  0  0  0  0  0  0  0  0  0  0  0
   22.6257   30.9005    2.9743 C   0  0  0  0  0  0  0  0  0  0  0  0
   22.5540   32.3023    2.8080 C   0  0  0  0  0  0  0  0  0  0  0  0
   23.7421   32.9924    2.9774 C   0  0  0  0  0  0  0  0  0  0  0  0
   24.9581   32.3701    3.2965 C   0  0  0  0  0  0  0  0  0  0  0  0
   25.9648   33.4372    3.3910 C   0  0  0  0  0  0  0  0  0  0  0  0
   25.2864   34.5823    3.1270 C   0  0  0  0  0  0  0  0  0  0  0  0
   24.0122   34.3314    2.8881 N   0  0  0  0  0  0  0  0  0  0  0  0
   27.4316   33.3543    3.7068 C   0  0  0  0  0  0  0  0  0  0  0  0
   28.1823   34.5576    3.1215 C   0  0  0  0  0  0  0  0  0  0  0  0
   27.4337   35.8191    3.1152 N   0  0  0  0  0  0  0  0  0  0  0  0
   25.9826   35.8853    3.1346 C   0  0  0  0  0  0  0  0  0  0  0  0
   30.2519   35.8232    3.3692 N   0  0  0  0  0  0  0  0  0  0  0  0
   29.5243   37.0462    3.0303 C   0  0  0  0  0  0  0  0  0  0  0  0
   28.0619   37.0131    3.0576 C   0  0  0  0  0  0  0  0  0  0  0  0
   31.6731   35.8805    3.6583 C   0  0  0  0  0  0  0  0  0  0  0  0
   27.4908   38.0736    3.0316 O   0  0  0  0  0  0  0  0  0  0  0  0
   29.6475   34.6427    3.4111 C   0  0  0  0  0  0  0  0  0  0  0  0
   30.2074   33.5685    3.6847 O   0  0  0  0  0  0  0  0  0  0  0  0
   25.3939   36.6240    4.3868 C   0  0  0  0  0  0  0  0  0  0  0  0
   24.4143   37.5956    4.2617 C   0  0  0  0  0  0  0  0  0  0  0  0
   23.9313   38.2161    5.4159 C   0  0  0  0  0  0  0  0  0  0  0  0
   24.3977   37.8942    6.6514 C   0  0  0  0  0  0  0  0  0  0  0  0
   25.3712   36.9385    6.8327 C   0  0  0  0  0  0  0  0  0  0  0  0
   25.8510   36.3195    5.6992 C   0  0  0  0  0  0  0  0  0  0  0  0
   22.9684   39.1924    5.4712 O   0  0  0  0  0  0  0  0  0  0  0  0
   22.6912   39.2093    6.9029 C   0  0  0  0  0  0  0  0  0  0  0  0
   23.7784   38.6320    7.6178 O   0  0  0  0  0  0  0  0  0  0  0  0
  1  6  2  0  0  0
  1  2  1  0  0  0
  2  3  1  0  0  0
  3  4  2  0  0  0
  4  5  1  0  0  0
  5  6  1  0  0  0
  6  7  1  0  0  0
  7  8  2  0  0  0
  7 10  1  0  0  0
  8  9  1  0  0  0
  8 13  1  0  0  0
  5  9  2  0  0  0
 10 11  1  0  0  0
 11 12  1  0  0  0
 12 16  1  0  0  0
 12 13  1  0  0  0
 13 21  1  0  0  0
 14 17  1  0  0  0
 14 19  1  0  0  0
 14 15  1  0  0  0
 15 16  1  0  0  0
 16 18  2  0  0  0
 21 22  2  0  0  0
 21 26  1  0  0  0
 22 23  1  0  0  0
 23 24  2  0  0  0
 24 29  1  0  0  0
 24 25  1  0  0  0
 25 26  2  0  0  0
 23 27  1  0  0  0
 27 28  1  0  0  0
 28 29  1  0  0  0
 11 19  1  0  0  0
 19 20  2  0  0  0
M  END
> <minimizedAffinity>
-6.94226

$$$$
1XOZ


 29 34  0  0  0  0  0  0  0  0999 V2000
   24.8466   37.5562    7.2152 C   0  0  0  0  0  0  0  0  0  0  0  0
   23.5758   37.6627    7.7563 C   0  0  0  0  0  0  0  0  0  0  0  0
   22.4607   36.8734    7.3657 C   0  0  0  0  0  0  0  0  0  0  0  0
   22.6141   35.8986    6.3537 C   0  0  0  0  0  0  0  0  0  0  0  0
   23.8821   35.7872    5.8094 C   0  0  0  0  0  0  0  0  0  0  0  0
   24.9681   36.5781    6.2127 C   0  0  0  0  0  0  0  0  0  0  0  0
   26.1191   36.1581    5.4004 C   0  0  0  0  0  0  0  0  0  0  0  0
   25.6403   35.1746    4.5976 C   0  0  0  0  0  0  0  0  0  0  0  0
   24.3586   34.9580    4.8299 N   0  0  0  0  0  0  0  0  0  0  0  0
   27.5353   36.6606    5.4017 C   0  0  0  0  0  0  0  0  0  0  0  0
   28.4938   35.5857    4.8726 C   0  0  0  0  0  0  0  0  0  0  0  0
   27.9487   34.7274    3.8152 N   0  0  0  0  0  0  0  0  0  0  0  0
   26.5261   34.5025    3.6248 C   0  0  0  0  0  0  0  0  0  0  0  0
   30.7149   35.3162    3.9030 N   0  0  0  0  0  0  0  0  0  0  0  0
   30.2039   34.2202    3.0800 C   0  0  0  0  0  0  0  0  0  0  0  0
   28.7545   34.0591    2.9622 C   0  0  0  0  0  0  0  0  0  0  0  0
   32.1091   35.7079    3.8059 C   0  0  0  0  0  0  0  0  0  0  0  0
   28.3549   33.3292    2.0909 O   0  0  0  0  0  0  0  0  0  0  0  0
   29.9356   35.9673    4.7570 C   0  0  0  0  0  0  0  0  0  0  0  0
   30.3078   36.8999    5.4877 O   0  0  0  0  0  0  0  0  0  0  0  0
   25.9864   34.9742    2.2297 C   0  0  0  0  0  0  0  0  0  0  0  0
   26.2714   36.2345    1.7300 C   0  0  0  0  0  0  0  0  0  0  0  0
   25.7609   36.5939    0.4808 C   0  0  0  0  0  0  0  0  0  0  0  0
   24.9936   35.7439   -0.2516 C   0  0  0  0  0  0  0  0  0  0  0  0
   24.6782   34.4819    0.1979 C   0  0  0  0  0  0  0  0  0  0  0  0
   25.1804   34.1184    1.4282 C   0  0  0  0  0  0  0  0  0  0  0  0
   25.9452   37.7948   -0.1574 O   0  0  0  0  0  0  0  0  0  0  0  0
   25.4539   37.4641   -1.4900 C   0  0  0  0  0  0  0  0  0  0  0  0
   24.6130   36.3170   -1.4298 O   0  0  0  0  0  0  0  0  0  0  0  0
  1  6  2  0  0  0
  1  2  1  0  0  0
  2  3  1  0  0  0
  3  4  2  0  0  0
  4  5  1  0  0  0
  5  6  1  0  0  0
  6  7  1  0  0  0
  7  8  2  0  0  0
  7 10  1  0  0  0
  8  9  1  0  0  0
  8 13  1  0  0  0
  5  9  2  0  0  0
 10 11  1  0  0  0
 11 12  1  0  0  0
 12 16  1  0  0  0
 12 13  1  0  0  0
 13 21  1  0  0  0
 14 17  1  0  0  0
 14 19  1  0  0  0
 14 15  1  0  0  0
 15 16  1  0  0  0
 16 18  2  0  0  0
 21 22  2  0  0  0
 21 26  1  0  0  0
 22 23  1  0  0  0
 23 24  2  0  0  0
 24 29  1  0  0  0
 24 25  1  0  0  0
 25 26  2  0  0  0
 23 27  1  0  0  0
 27 28  1  0  0  0
 28 29  1  0  0  0
 11 19  1  0  0  0
 19 20  2  0  0  0
M  END
> <minimizedAffinity>
-6.78796

$$$$
1XOZ


 29 34  0  0  0  0  0  0  0  0999 V2000
   20.4181   34.9239    7.0597 C   0  0  0  0  0  0  0  0  0  0  0  0
   20.2942   33.9815    8.0676 C   0  0  0  0  0  0  0  0  0  0  0  0
   21.2622   33.7481    9.0812 C   0  0  0  0  0  0  0  0  0  0  0  0
   22.4536   34.5084    9.0989 C   0  0  0  0  0  0  0  0  0  0  0  0
   22.5829   35.4523    8.0944 C   0  0  0  0  0  0  0  0  0  0  0  0
   21.6121   35.6647    7.1044 C   0  0  0  0  0  0  0  0  0  0  0  0
   22.1234   36.7355    6.2367 C   0  0  0  0  0  0  0  0  0  0  0  0
   23.3279   37.0686    6.7650 C   0  0  0  0  0  0  0  0  0  0  0  0
   23.5945   36.3362    7.8309 N   0  0  0  0  0  0  0  0  0  0  0  0
   21.5079   37.3679    5.0203 C   0  0  0  0  0  0  0  0  0  0  0  0
   22.0602   38.7831    4.8053 C   0  0  0  0  0  0  0  0  0  0  0  0
   23.4657   38.9699    5.1816 N   0  0  0  0  0  0  0  0  0  0  0  0
   24.1519   38.1270    6.1457 C   0  0  0  0  0  0  0  0  0  0  0  0
   22.3274   40.4886    3.0831 N   0  0  0  0  0  0  0  0  0  0  0  0
   23.5995   40.8785    3.6908 C   0  0  0  0  0  0  0  0  0  0  0  0
   24.2072   39.9746    4.6676 C   0  0  0  0  0  0  0  0  0  0  0  0
   21.8448   41.1805    1.9019 C   0  0  0  0  0  0  0  0  0  0  0  0
   25.3581   40.1793    4.9594 O   0  0  0  0  0  0  0  0  0  0  0  0
   21.5829   39.5147    3.5909 C   0  0  0  0  0  0  0  0  0  0  0  0
   20.4929   39.1403    3.1284 O   0  0  0  0  0  0  0  0  0  0  0  0
   25.3832   37.3547    5.5563 C   0  0  0  0  0  0  0  0  0  0  0  0
   26.6457   37.4678    6.1153 C   0  0  0  0  0  0  0  0  0  0  0  0
   27.7009   36.7537    5.5434 C   0  0  0  0  0  0  0  0  0  0  0  0
   27.5215   35.9573    4.4565 C   0  0  0  0  0  0  0  0  0  0  0  0
   26.2897   35.8105    3.8605 C   0  0  0  0  0  0  0  0  0  0  0  0
   25.2428   36.5094    4.4205 C   0  0  0  0  0  0  0  0  0  0  0  0
   29.0058   36.7523    5.9685 O   0  0  0  0  0  0  0  0  0  0  0  0
   29.5328   35.6306    5.1999 C   0  0  0  0  0  0  0  0  0  0  0  0
   28.6932   35.3678    4.0808 O   0  0  0  0  0  0  0  0  0  0  0  0
  1  6  2  0  0  0
  1  2  1  0  0  0
  2  3  1  0  0  0
  3  4  2  0  0  0
  4  5  1  0  0  0
  5  6  1  0  0  0
  6  7  1  0  0  0
  7  8  2  0  0  0
  7 10  1  0  0  0
  8  9  1  0  0  0
  8 13  1  0  0  0
  5  9  2  0  0  0
 10 11  1  0  0  0
 11 12  1  0  0  0
 12 16  1  0  0  0
 12 13  1  0  0  0
 13 21  1  0  0  0
 14 17  1  0  0  0
 14 19  1  0  0  0
 14 15  1  0  0  0
 15 16  1  0  0  0
 16 18  2  0  0  0
 21 22  2  0  0  0
 21 26  1  0  0  0
 22 23  1  0  0  0
 23 24  2  0  0  0
 24 29  1  0  0  0
 24 25  1  0  0  0
 25 26  2  0  0  0
 23 27  1  0  0  0
 27 28  1  0  0  0
 28 29  1  0  0  0
 11 19  1  0  0  0
 19 20  2  0  0  0
M  END
> <minimizedAffinity>
-6.77615

$$$$
