1XOZ


 29 34  0  0  0  0  0  0  0  0999 V2000
   18.5486   42.1491    9.0282 C   0  0  0  0  0  0  0  0  0  0  0  0
   19.2178   42.6763    7.9358 C   0  0  0  0  0  0  0  0  0  0  0  0
   19.7937   43.9744    7.8883 C   0  0  0  0  0  0  0  0  0  0  0  0
   19.6981   44.8235    9.0143 C   0  0  0  0  0  0  0  0  0  0  0  0
   19.0307   44.3020   10.1094 C   0  0  0  0  0  0  0  0  0  0  0  0
   18.4709   43.0160   10.1323 C   0  0  0  0  0  0  0  0  0  0  0  0
   17.8570   42.8479   11.4574 C   0  0  0  0  0  0  0  0  0  0  0  0
   18.0939   44.0173   12.1034 C   0  0  0  0  0  0  0  0  0  0  0  0
   18.7677   44.8531   11.3345 N   0  0  0  0  0  0  0  0  0  0  0  0
   17.1160   41.6753   12.0354 C   0  0  0  0  0  0  0  0  0  0  0  0
   17.1878   41.6889   13.5679 C   0  0  0  0  0  0  0  0  0  0  0  0
   17.1850   43.0210   14.1824 N   0  0  0  0  0  0  0  0  0  0  0  0
   17.6132   44.2216   13.4854 C   0  0  0  0  0  0  0  0  0  0  0  0
   16.0569   40.8105   15.5417 N   0  0  0  0  0  0  0  0  0  0  0  0
   16.3638   42.0533   16.2495 C   0  0  0  0  0  0  0  0  0  0  0  0
   16.8074   43.2063   15.4656 C   0  0  0  0  0  0  0  0  0  0  0  0
   15.3278   39.7520   16.2160 C   0  0  0  0  0  0  0  0  0  0  0  0
   16.8059   44.2765   16.0190 O   0  0  0  0  0  0  0  0  0  0  0  0
   16.4389   40.6117   14.2866 C   0  0  0  0  0  0  0  0  0  0  0  0
   16.2168   39.5796   13.6326 O   0  0  0  0  0  0  0  0  0  0  0  0
   16.4930   45.3100   13.3415 C   0  0  0  0  0  0  0  0  0  0  0  0
   16.6981   46.6196   13.7441 C   0  0  0  0  0  0  0  0  0  0  0  0
   15.6604   47.5413   13.5889 C   0  0  0  0  0  0  0  0  0  0  0  0
   14.4601   47.1867   13.0584 C   0  0  0  0  0  0  0  0  0  0  0  0
   14.2021   45.8998   12.6444 C   0  0  0  0  0  0  0  0  0  0  0  0
   15.2218   44.9851   12.7913 C   0  0  0  0  0  0  0  0  0  0  0  0
   15.6948   48.8693   13.9332 O   0  0  0  0  0  0  0  0  0  0  0  0
   14.4846   49.3450   13.2731 C   0  0  0  0  0  0  0  0  0  0  0  0
   13.6101   48.2529   13.0104 O   0  0  0  0  0  0  0  0  0  0  0  0
  1  6  2  0  0  0
  1  2  1  0  0  0
  2  3  1  0  0  0
  3  4  2  0  0  0
  4  5  1  0  0  0
  5  6  1  0  0  0
  6  7  1  0  0  0
  7  8  2  0  0  0
  7 10  1  0  0  0
  8  9  1  0  0  0
  8 13  1  0  0  0
  5  9  2  0  0  0
 10 11  1  0  0  0
 11 12  1  0  0  0
 12 16  1  0  0  0
 12 13  1  0  0  0
 13 21  1  0  0  0
 14 17  1  0  0  0
 14 19  1  0  0  0
 14 15  1  0  0  0
 15 16  1  0  0  0
 16 18  2  0  0  0
 21 22  2  0  0  0
 21 26  1  0  0  0
 22 23  1  0  0  0
 23 24  2  0  0  0
 24 29  1  0  0  0
 24 25  1  0  0  0
 25 26  2  0  0  0
 23 27  1  0  0  0
 27 28  1  0  0  0
 28 29  1  0  0  0
 11 19  1  0  0  0
 19 20  2  0  0  0
M  END
> <minimizedAffinity>
-5.98873

$$$$
1XOZ


 29 34  0  0  0  0  0  0  0  0999 V2000
   15.3058   40.9194   15.9265 C   0  0  0  0  0  0  0  0  0  0  0  0
   15.8352   39.6406   15.9869 C   0  0  0  0  0  0  0  0  0  0  0  0
   17.0409   39.2328   15.3553 C   0  0  0  0  0  0  0  0  0  0  0  0
   17.7846   40.1668   14.5986 C   0  0  0  0  0  0  0  0  0  0  0  0
   17.2607   41.4467   14.5349 C   0  0  0  0  0  0  0  0  0  0  0  0
   16.0679   41.8255   15.1683 C   0  0  0  0  0  0  0  0  0  0  0  0
   15.8598   43.2473   14.8580 C   0  0  0  0  0  0  0  0  0  0  0  0
   16.9186   43.5948   14.0840 C   0  0  0  0  0  0  0  0  0  0  0  0
   17.7248   42.5658   13.8975 N   0  0  0  0  0  0  0  0  0  0  0  0
   14.7480   44.1714   15.2681 C   0  0  0  0  0  0  0  0  0  0  0  0
   15.2192   45.6314   15.2465 C   0  0  0  0  0  0  0  0  0  0  0  0
   16.1887   45.9603   14.1959 N   0  0  0  0  0  0  0  0  0  0  0  0
   17.0512   44.9733   13.5694 C   0  0  0  0  0  0  0  0  0  0  0  0
   14.3663   47.9129   15.1302 N   0  0  0  0  0  0  0  0  0  0  0  0
   15.5386   48.2926   14.3419 C   0  0  0  0  0  0  0  0  0  0  0  0
   16.3607   47.2286   13.7652 C   0  0  0  0  0  0  0  0  0  0  0  0
   13.3584   48.9050   15.4564 C   0  0  0  0  0  0  0  0  0  0  0  0
   17.1560   47.5503   12.9193 O   0  0  0  0  0  0  0  0  0  0  0  0
   14.1970   46.6736   15.5730 C   0  0  0  0  0  0  0  0  0  0  0  0
   13.2303   46.2885   16.2509 O   0  0  0  0  0  0  0  0  0  0  0  0
   16.8334   44.8248   12.0232 C   0  0  0  0  0  0  0  0  0  0  0  0
   17.8988   44.6593   11.1532 C   0  0  0  0  0  0  0  0  0  0  0  0
   17.6380   44.5325    9.7871 C   0  0  0  0  0  0  0  0  0  0  0  0
   16.3725   44.5701    9.2924 C   0  0  0  0  0  0  0  0  0  0  0  0
   15.2785   44.7345   10.1111 C   0  0  0  0  0  0  0  0  0  0  0  0
   15.5270   44.8574   11.4606 C   0  0  0  0  0  0  0  0  0  0  0  0
   18.5702   44.3635    8.7942 O   0  0  0  0  0  0  0  0  0  0  0  0
   17.7046   44.0014    7.6778 C   0  0  0  0  0  0  0  0  0  0  0  0
   16.3711   44.4278    7.9354 O   0  0  0  0  0  0  0  0  0  0  0  0
  1  6  2  0  0  0
  1  2  1  0  0  0
  2  3  1  0  0  0
  3  4  2  0  0  0
  4  5  1  0  0  0
  5  6  1  0  0  0
  6  7  1  0  0  0
  7  8  2  0  0  0
  7 10  1  0  0  0
  8  9  1  0  0  0
  8 13  1  0  0  0
  5  9  2  0  0  0
 10 11  1  0  0  0
 11 12  1  0  0  0
 12 16  1  0  0  0
 12 13  1  0  0  0
 13 21  1  0  0  0
 14 17  1  0  0  0
 14 19  1  0  0  0
 14 15  1  0  0  0
 15 16  1  0  0  0
 16 18  2  0  0  0
 21 22  2  0  0  0
 21 26  1  0  0  0
 22 23  1  0  0  0
 23 24  2  0  0  0
 24 29  1  0  0  0
 24 25  1  0  0  0
 25 26  2  0  0  0
 23 27  1  0  0  0
 27 28  1  0  0  0
 28 29  1  0  0  0
 11 19  1  0  0  0
 19 20  2  0  0  0
M  END
> <minimizedAffinity>
-5.81652

$$$$
1XOZ


 29 34  0  0  0  0  0  0  0  0999 V2000
   19.6908   43.7678    6.3243 C   0  0  0  0  0  0  0  0  0  0  0  0
   20.6960   44.5906    5.8428 C   0  0  0  0  0  0  0  0  0  0  0  0
   21.4771   45.4676    6.6426 C   0  0  0  0  0  0  0  0  0  0  0  0
   21.2435   45.5391    8.0347 C   0  0  0  0  0  0  0  0  0  0  0  0
   20.2404   44.7187    8.5220 C   0  0  0  0  0  0  0  0  0  0  0  0
   19.4829   43.8601    7.7116 C   0  0  0  0  0  0  0  0  0  0  0  0
   18.5323   43.1742    8.5987 C   0  0  0  0  0  0  0  0  0  0  0  0
   18.7921   43.6655    9.8365 C   0  0  0  0  0  0  0  0  0  0  0  0
   19.7715   44.5503    9.7970 N   0  0  0  0  0  0  0  0  0  0  0  0
   17.4801   42.1504    8.2779 C   0  0  0  0  0  0  0  0  0  0  0  0
   17.1602   41.2952    9.5110 C   0  0  0  0  0  0  0  0  0  0  0  0
   17.2275   42.0002   10.7956 N   0  0  0  0  0  0  0  0  0  0  0  0
   18.0170   43.2016   11.0055 C   0  0  0  0  0  0  0  0  0  0  0  0
   15.4312   39.8442   10.4336 N   0  0  0  0  0  0  0  0  0  0  0  0
   15.7544   40.3387   11.7718 C   0  0  0  0  0  0  0  0  0  0  0  0
   16.5726   41.5462   11.8858 C   0  0  0  0  0  0  0  0  0  0  0  0
   14.3853   38.8531   10.2588 C   0  0  0  0  0  0  0  0  0  0  0  0
   16.6121   42.0795   12.9655 O   0  0  0  0  0  0  0  0  0  0  0  0
   16.0809   40.2707    9.3581 C   0  0  0  0  0  0  0  0  0  0  0  0
   15.8606   39.8872    8.1977 O   0  0  0  0  0  0  0  0  0  0  0  0
   17.1725   44.4554   11.4239 C   0  0  0  0  0  0  0  0  0  0  0  0
   17.5220   45.2341   12.5152 C   0  0  0  0  0  0  0  0  0  0  0  0
   16.7285   46.3378   12.8355 C   0  0  0  0  0  0  0  0  0  0  0  0
   15.6267   46.6635   12.1091 C   0  0  0  0  0  0  0  0  0  0  0  0
   15.2331   45.9236   11.0175 C   0  0  0  0  0  0  0  0  0  0  0  0
   16.0123   44.8347   10.6930 C   0  0  0  0  0  0  0  0  0  0  0  0
   16.9302   47.2088   13.8767 O   0  0  0  0  0  0  0  0  0  0  0  0
   15.9986   48.2713   13.5167 C   0  0  0  0  0  0  0  0  0  0  0  0
   15.0167   47.7748   12.6136 O   0  0  0  0  0  0  0  0  0  0  0  0
  1  6  2  0  0  0
  1  2  1  0  0  0
  2  3  1  0  0  0
  3  4  2  0  0  0
  4  5  1  0  0  0
  5  6  1  0  0  0
  6  7  1  0  0  0
  7  8  2  0  0  0
  7 10  1  0  0  0
  8  9  1  0  0  0
  8 13  1  0  0  0
  5  9  2  0  0  0
 10 11  1  0  0  0
 11 12  1  0  0  0
 12 16  1  0  0  0
 12 13  1  0  0  0
 13 21  1  0  0  0
 14 17  1  0  0  0
 14 19  1  0  0  0
 14 15  1  0  0  0
 15 16  1  0  0  0
 16 18  2  0  0  0
 21 22  2  0  0  0
 21 26  1  0  0  0
 22 23  1  0  0  0
 23 24  2  0  0  0
 24 29  1  0  0  0
 24 25  1  0  0  0
 25 26  2  0  0  0
 23 27  1  0  0  0
 27 28  1  0  0  0
 28 29  1  0  0  0
 11 19  1  0  0  0
 19 20  2  0  0  0
M  END
> <minimizedAffinity>
-5.75962

$$$$
1XOZ


 29 34  0  0  0  0  0  0  0  0999 V2000
   16.3172   46.8017   14.2592 C   0  0  0  0  0  0  0  0  0  0  0  0
   15.8512   48.1064   14.2695 C   0  0  0  0  0  0  0  0  0  0  0  0
   15.3061   48.7802   13.1436 C   0  0  0  0  0  0  0  0  0  0  0  0
   15.2160   48.1091   11.9029 C   0  0  0  0  0  0  0  0  0  0  0  0
   15.6796   46.8047   11.8866 C   0  0  0  0  0  0  0  0  0  0  0  0
   16.2133   46.1604   13.0125 C   0  0  0  0  0  0  0  0  0  0  0  0
   16.5885   44.8053   12.5835 C   0  0  0  0  0  0  0  0  0  0  0  0
   16.2567   44.7503   11.2690 C   0  0  0  0  0  0  0  0  0  0  0  0
   15.7342   45.8940   10.8659 N   0  0  0  0  0  0  0  0  0  0  0  0
   17.2065   43.6820   13.3672 C   0  0  0  0  0  0  0  0  0  0  0  0
   16.8726   42.3268   12.7300 C   0  0  0  0  0  0  0  0  0  0  0  0
   16.7841   42.3290   11.2657 N   0  0  0  0  0  0  0  0  0  0  0  0
   16.4950   43.5203   10.4860 C   0  0  0  0  0  0  0  0  0  0  0  0
   17.6380   40.0130   12.6489 N   0  0  0  0  0  0  0  0  0  0  0  0
   17.2275   39.9443   11.2466 C   0  0  0  0  0  0  0  0  0  0  0  0
   16.9375   41.1961   10.5469 C   0  0  0  0  0  0  0  0  0  0  0  0
   18.2290   38.8526   13.2900 C   0  0  0  0  0  0  0  0  0  0  0  0
   16.8555   41.1445    9.3460 O   0  0  0  0  0  0  0  0  0  0  0  0
   17.4752   41.1157   13.3687 C   0  0  0  0  0  0  0  0  0  0  0  0
   17.7953   41.2373   14.5624 O   0  0  0  0  0  0  0  0  0  0  0  0
   17.6349   43.9208    9.4859 C   0  0  0  0  0  0  0  0  0  0  0  0
   17.3866   44.0916    8.1337 C   0  0  0  0  0  0  0  0  0  0  0  0
   18.4449   44.4489    7.2954 C   0  0  0  0  0  0  0  0  0  0  0  0
   19.7058   44.6295    7.7700 C   0  0  0  0  0  0  0  0  0  0  0  0
   20.0084   44.4708    9.1032 C   0  0  0  0  0  0  0  0  0  0  0  0
   18.9692   44.1211    9.9374 C   0  0  0  0  0  0  0  0  0  0  0  0
   18.3740   44.6564    5.9406 O   0  0  0  0  0  0  0  0  0  0  0  0
   19.6717   45.2766    5.7000 C   0  0  0  0  0  0  0  0  0  0  0  0
   20.5642   44.9712    6.7661 O   0  0  0  0  0  0  0  0  0  0  0  0
  1  6  2  0  0  0
  1  2  1  0  0  0
  2  3  1  0  0  0
  3  4  2  0  0  0
  4  5  1  0  0  0
  5  6  1  0  0  0
  6  7  1  0  0  0
  7  8  2  0  0  0
  7 10  1  0  0  0
  8  9  1  0  0  0
  8 13  1  0  0  0
  5  9  2  0  0  0
 10 11  1  0  0  0
 11 12  1  0  0  0
 12 16  1  0  0  0
 12 13  1  0  0  0
 13 21  1  0  0  0
 14 17  1  0  0  0
 14 19  1  0  0  0
 14 15  1  0  0  0
 15 16  1  0  0  0
 16 18  2  0  0  0
 21 22  2  0  0  0
 21 26  1  0  0  0
 22 23  1  0  0  0
 23 24  2  0  0  0
 24 29  1  0  0  0
 24 25  1  0  0  0
 25 26  2  0  0  0
 23 27  1  0  0  0
 27 28  1  0  0  0
 28 29  1  0  0  0
 11 19  1  0  0  0
 19 20  2  0  0  0
M  END
> <minimizedAffinity>
-5.63936

$$$$
1XOZ


 29 34  0  0  0  0  0  0  0  0999 V2000
   13.9821   48.6596   12.7759 C   0  0  0  0  0  0  0  0  0  0  0  0
   13.9299   49.6750   13.7169 C   0  0  0  0  0  0  0  0  0  0  0  0
   14.8986   49.8861   14.7348 C   0  0  0  0  0  0  0  0  0  0  0  0
   16.0111   49.0196   14.8320 C   0  0  0  0  0  0  0  0  0  0  0  0
   16.0690   48.0032   13.8938 C   0  0  0  0  0  0  0  0  0  0  0  0
   15.0999   47.8156   12.8973 C   0  0  0  0  0  0  0  0  0  0  0  0
   15.5198   46.6424   12.1174 C   0  0  0  0  0  0  0  0  0  0  0  0
   16.6771   46.2339   12.6960 C   0  0  0  0  0  0  0  0  0  0  0  0
   16.9962   47.0122   13.7139 N   0  0  0  0  0  0  0  0  0  0  0  0
   14.8648   45.9851   10.9354 C   0  0  0  0  0  0  0  0  0  0  0  0
   15.8979   45.2205   10.0974 C   0  0  0  0  0  0  0  0  0  0  0  0
   16.9850   44.5977   10.8604 N   0  0  0  0  0  0  0  0  0  0  0  0
   17.4023   45.0573   12.1740 C   0  0  0  0  0  0  0  0  0  0  0  0
   16.0747   43.4337    8.4474 N   0  0  0  0  0  0  0  0  0  0  0  0
   17.3493   43.0332    9.0430 C   0  0  0  0  0  0  0  0  0  0  0  0
   17.6947   43.5624   10.3626 C   0  0  0  0  0  0  0  0  0  0  0  0
   15.5478   42.7097    7.3051 C   0  0  0  0  0  0  0  0  0  0  0  0
   18.6069   43.0306   10.9429 O   0  0  0  0  0  0  0  0  0  0  0  0
   15.3786   44.4606    8.9180 C   0  0  0  0  0  0  0  0  0  0  0  0
   14.2959   44.8554    8.4552 O   0  0  0  0  0  0  0  0  0  0  0  0
   17.2474   43.9822   13.3054 C   0  0  0  0  0  0  0  0  0  0  0  0
   16.0887   43.2352   13.4425 C   0  0  0  0  0  0  0  0  0  0  0  0
   16.0136   42.2932   14.4708 C   0  0  0  0  0  0  0  0  0  0  0  0
   17.0420   42.0940   15.3370 C   0  0  0  0  0  0  0  0  0  0  0  0
   18.2142   42.8097   15.2477 C   0  0  0  0  0  0  0  0  0  0  0  0
   18.2974   43.7391   14.2341 C   0  0  0  0  0  0  0  0  0  0  0  0
   14.9469   41.4749   14.7468 O   0  0  0  0  0  0  0  0  0  0  0  0
   15.5619   40.5483   15.6901 C   0  0  0  0  0  0  0  0  0  0  0  0
   16.7346   41.1286   16.2508 O   0  0  0  0  0  0  0  0  0  0  0  0
  1  6  2  0  0  0
  1  2  1  0  0  0
  2  3  1  0  0  0
  3  4  2  0  0  0
  4  5  1  0  0  0
  5  6  1  0  0  0
  6  7  1  0  0  0
  7  8  2  0  0  0
  7 10  1  0  0  0
  8  9  1  0  0  0
  8 13  1  0  0  0
  5  9  2  0  0  0
 10 11  1  0  0  0
 11 12  1  0  0  0
 12 16  1  0  0  0
 12 13  1  0  0  0
 13 21  1  0  0  0
 14 17  1  0  0  0
 14 19  1  0  0  0
 14 15  1  0  0  0
 15 16  1  0  0  0
 16 18  2  0  0  0
 21 22  2  0  0  0
 21 26  1  0  0  0
 22 23  1  0  0  0
 23 24  2  0  0  0
 24 29  1  0  0  0
 24 25  1  0  0  0
 25 26  2  0  0  0
 23 27  1  0  0  0
 27 28  1  0  0  0
 28 29  1  0  0  0
 11 19  1  0  0  0
 19 20  2  0  0  0
M  END
> <minimizedAffinity>
-5.52014

$$$$
