1XOZ


 29 34  0  0  0  0  0  0  0  0999 V2000
   42.4007   55.1740   15.5758 C   0  0  0  0  0  0  0  0  0  0  0  0
   41.7751   55.0840   16.8086 C   0  0  0  0  0  0  0  0  0  0  0  0
   41.5204   53.8693   17.5005 C   0  0  0  0  0  0  0  0  0  0  0  0
   41.9151   52.6404   16.9246 C   0  0  0  0  0  0  0  0  0  0  0  0
   42.5413   52.7240   15.6927 C   0  0  0  0  0  0  0  0  0  0  0  0
   42.7824   53.9362   15.0294 C   0  0  0  0  0  0  0  0  0  0  0  0
   43.4549   53.5984   13.7666 C   0  0  0  0  0  0  0  0  0  0  0  0
   43.5592   52.2456   13.7770 C   0  0  0  0  0  0  0  0  0  0  0  0
   43.0378   51.7406   14.8801 N   0  0  0  0  0  0  0  0  0  0  0  0
   43.9432   54.4950   12.6639 C   0  0  0  0  0  0  0  0  0  0  0  0
   45.0722   53.8197   11.8743 C   0  0  0  0  0  0  0  0  0  0  0  0
   44.9514   52.3648   11.7304 N   0  0  0  0  0  0  0  0  0  0  0  0
   44.1908   51.5332   12.6473 C   0  0  0  0  0  0  0  0  0  0  0  0
   46.2154   53.9061    9.7222 N   0  0  0  0  0  0  0  0  0  0  0  0
   46.3723   52.4524    9.7665 C   0  0  0  0  0  0  0  0  0  0  0  0
   45.5784   51.6986   10.7371 C   0  0  0  0  0  0  0  0  0  0  0  0
   46.7315   54.6579    8.5929 C   0  0  0  0  0  0  0  0  0  0  0  0
   45.5244   50.5042   10.5889 O   0  0  0  0  0  0  0  0  0  0  0  0
   45.6167   54.5718   10.7015 C   0  0  0  0  0  0  0  0  0  0  0  0
   45.4574   55.8031   10.7282 O   0  0  0  0  0  0  0  0  0  0  0  0
   43.0039   50.7605   11.9733 C   0  0  0  0  0  0  0  0  0  0  0  0
   42.7956   49.4099   12.2006 C   0  0  0  0  0  0  0  0  0  0  0  0
   41.7203   48.7798   11.5704 C   0  0  0  0  0  0  0  0  0  0  0  0
   40.8795   49.4544   10.7422 C   0  0  0  0  0  0  0  0  0  0  0  0
   41.0416   50.7956   10.4799 C   0  0  0  0  0  0  0  0  0  0  0  0
   42.0985   51.4253   11.1001 C   0  0  0  0  0  0  0  0  0  0  0  0
   41.3730   47.4570   11.6846 O   0  0  0  0  0  0  0  0  0  0  0  0
   40.0507   47.4769   11.0701 C   0  0  0  0  0  0  0  0  0  0  0  0
   39.9119   48.6298   10.2467 O   0  0  0  0  0  0  0  0  0  0  0  0
  1  6  2  0  0  0
  1  2  1  0  0  0
  2  3  1  0  0  0
  3  4  2  0  0  0
  4  5  1  0  0  0
  5  6  1  0  0  0
  6  7  1  0  0  0
  7  8  2  0  0  0
  7 10  1  0  0  0
  8  9  1  0  0  0
  8 13  1  0  0  0
  5  9  2  0  0  0
 10 11  1  0  0  0
 11 12  1  0  0  0
 12 16  1  0  0  0
 12 13  1  0  0  0
 13 21  1  0  0  0
 14 17  1  0  0  0
 14 19  1  0  0  0
 14 15  1  0  0  0
 15 16  1  0  0  0
 16 18  2  0  0  0
 21 22  2  0  0  0
 21 26  1  0  0  0
 22 23  1  0  0  0
 23 24  2  0  0  0
 24 29  1  0  0  0
 24 25  1  0  0  0
 25 26  2  0  0  0
 23 27  1  0  0  0
 27 28  1  0  0  0
 28 29  1  0  0  0
 11 19  1  0  0  0
 19 20  2  0  0  0
M  END
> <minimizedAffinity>
-8.54566

$$$$
1XOZ


 29 34  0  0  0  0  0  0  0  0999 V2000
   38.7529   54.7168    9.0433 C   0  0  0  0  0  0  0  0  0  0  0  0
   38.5618   56.0156    8.6008 C   0  0  0  0  0  0  0  0  0  0  0  0
   39.4458   57.0975    8.8600 C   0  0  0  0  0  0  0  0  0  0  0  0
   40.6155   56.8776    9.6223 C   0  0  0  0  0  0  0  0  0  0  0  0
   40.8121   55.5814   10.0670 C   0  0  0  0  0  0  0  0  0  0  0  0
   39.9246   54.5292    9.7972 C   0  0  0  0  0  0  0  0  0  0  0  0
   40.4840   53.3314   10.4402 C   0  0  0  0  0  0  0  0  0  0  0  0
   41.6322   53.7537   11.0272 C   0  0  0  0  0  0  0  0  0  0  0  0
   41.8246   55.0426   10.8145 N   0  0  0  0  0  0  0  0  0  0  0  0
   39.9579   51.9245   10.4822 C   0  0  0  0  0  0  0  0  0  0  0  0
   41.0984   50.9246   10.7135 C   0  0  0  0  0  0  0  0  0  0  0  0
   42.1823   51.4014   11.5794 N   0  0  0  0  0  0  0  0  0  0  0  0
   42.4795   52.8088   11.7833 C   0  0  0  0  0  0  0  0  0  0  0  0
   41.5188   48.6521   11.4917 N   0  0  0  0  0  0  0  0  0  0  0  0
   42.7819   49.1039   12.0750 C   0  0  0  0  0  0  0  0  0  0  0  0
   43.0016   50.5427   12.2236 C   0  0  0  0  0  0  0  0  0  0  0  0
   41.1230   47.2604   11.6061 C   0  0  0  0  0  0  0  0  0  0  0  0
   43.9156   50.8858   12.9297 O   0  0  0  0  0  0  0  0  0  0  0  0
   40.7154   49.4842   10.8414 C   0  0  0  0  0  0  0  0  0  0  0  0
   39.6355   49.1639   10.3185 O   0  0  0  0  0  0  0  0  0  0  0  0
   42.3409   53.2813   13.2725 C   0  0  0  0  0  0  0  0  0  0  0  0
   41.1387   53.1872   13.9544 C   0  0  0  0  0  0  0  0  0  0  0  0
   41.0810   53.6251   15.2793 C   0  0  0  0  0  0  0  0  0  0  0  0
   42.1680   54.1408   15.9118 C   0  0  0  0  0  0  0  0  0  0  0  0
   43.3855   54.2591   15.2811 C   0  0  0  0  0  0  0  0  0  0  0  0
   43.4516   53.8266   13.9747 C   0  0  0  0  0  0  0  0  0  0  0  0
   39.9773   53.6040   16.0947 O   0  0  0  0  0  0  0  0  0  0  0  0
   40.5963   53.8857   17.3847 C   0  0  0  0  0  0  0  0  0  0  0  0
   41.8666   54.4990   17.1934 O   0  0  0  0  0  0  0  0  0  0  0  0
  1  6  2  0  0  0
  1  2  1  0  0  0
  2  3  1  0  0  0
  3  4  2  0  0  0
  4  5  1  0  0  0
  5  6  1  0  0  0
  6  7  1  0  0  0
  7  8  2  0  0  0
  7 10  1  0  0  0
  8  9  1  0  0  0
  8 13  1  0  0  0
  5  9  2  0  0  0
 10 11  1  0  0  0
 11 12  1  0  0  0
 12 16  1  0  0  0
 12 13  1  0  0  0
 13 21  1  0  0  0
 14 17  1  0  0  0
 14 19  1  0  0  0
 14 15  1  0  0  0
 15 16  1  0  0  0
 16 18  2  0  0  0
 21 22  2  0  0  0
 21 26  1  0  0  0
 22 23  1  0  0  0
 23 24  2  0  0  0
 24 29  1  0  0  0
 24 25  1  0  0  0
 25 26  2  0  0  0
 23 27  1  0  0  0
 27 28  1  0  0  0
 28 29  1  0  0  0
 11 19  1  0  0  0
 19 20  2  0  0  0
M  END
> <minimizedAffinity>
-8.21354

$$$$
1XOZ


 29 34  0  0  0  0  0  0  0  0999 V2000
   42.5987   52.5861   17.9122 C   0  0  0  0  0  0  0  0  0  0  0  0
   42.2487   53.0515   19.1693 C   0  0  0  0  0  0  0  0  0  0  0  0
   41.2702   54.0511   19.4190 C   0  0  0  0  0  0  0  0  0  0  0  0
   40.5815   54.6418   18.3352 C   0  0  0  0  0  0  0  0  0  0  0  0
   40.9266   54.1803   17.0764 C   0  0  0  0  0  0  0  0  0  0  0  0
   41.8963   53.1912   16.8554 C   0  0  0  0  0  0  0  0  0  0  0  0
   41.9682   52.9900   15.4009 C   0  0  0  0  0  0  0  0  0  0  0  0
   41.0583   53.8532   14.8832 C   0  0  0  0  0  0  0  0  0  0  0  0
   40.4581   54.5365   15.8405 N   0  0  0  0  0  0  0  0  0  0  0  0
   42.8316   52.0587   14.5975 C   0  0  0  0  0  0  0  0  0  0  0  0
   42.1800   51.7453   13.2443 C   0  0  0  0  0  0  0  0  0  0  0  0
   41.4173   52.8470   12.6471 N   0  0  0  0  0  0  0  0  0  0  0  0
   40.8493   53.9361   13.4230 C   0  0  0  0  0  0  0  0  0  0  0  0
   42.7175   50.9451   11.0044 N   0  0  0  0  0  0  0  0  0  0  0  0
   41.6964   51.8391   10.4586 C   0  0  0  0  0  0  0  0  0  0  0  0
   41.1676   52.8961   11.3210 C   0  0  0  0  0  0  0  0  0  0  0  0
   43.4887   50.0954   10.1156 C   0  0  0  0  0  0  0  0  0  0  0  0
   40.5315   53.7693   10.7876 O   0  0  0  0  0  0  0  0  0  0  0  0
   42.9581   50.8766   12.3075 C   0  0  0  0  0  0  0  0  0  0  0  0
   43.8041   50.1358   12.8346 O   0  0  0  0  0  0  0  0  0  0  0  0
   41.4055   55.3514   13.0388 C   0  0  0  0  0  0  0  0  0  0  0  0
   40.5597   56.4206   12.7918 C   0  0  0  0  0  0  0  0  0  0  0  0
   41.1178   57.6555   12.4544 C   0  0  0  0  0  0  0  0  0  0  0  0
   42.4622   57.8329   12.3602 C   0  0  0  0  0  0  0  0  0  0  0  0
   43.3473   56.8049   12.5929 C   0  0  0  0  0  0  0  0  0  0  0  0
   42.8048   55.5840   12.9292 C   0  0  0  0  0  0  0  0  0  0  0  0
   40.4293   58.8104   12.1794 O   0  0  0  0  0  0  0  0  0  0  0  0
   41.5187   59.7796   12.2037 C   0  0  0  0  0  0  0  0  0  0  0  0
   42.7653   59.1182   12.0171 O   0  0  0  0  0  0  0  0  0  0  0  0
  1  6  2  0  0  0
  1  2  1  0  0  0
  2  3  1  0  0  0
  3  4  2  0  0  0
  4  5  1  0  0  0
  5  6  1  0  0  0
  6  7  1  0  0  0
  7  8  2  0  0  0
  7 10  1  0  0  0
  8  9  1  0  0  0
  8 13  1  0  0  0
  5  9  2  0  0  0
 10 11  1  0  0  0
 11 12  1  0  0  0
 12 16  1  0  0  0
 12 13  1  0  0  0
 13 21  1  0  0  0
 14 17  1  0  0  0
 14 19  1  0  0  0
 14 15  1  0  0  0
 15 16  1  0  0  0
 16 18  2  0  0  0
 21 22  2  0  0  0
 21 26  1  0  0  0
 22 23  1  0  0  0
 23 24  2  0  0  0
 24 29  1  0  0  0
 24 25  1  0  0  0
 25 26  2  0  0  0
 23 27  1  0  0  0
 27 28  1  0  0  0
 28 29  1  0  0  0
 11 19  1  0  0  0
 19 20  2  0  0  0
M  END
> <minimizedAffinity>
-8.03945

$$$$
1XOZ


 29 34  0  0  0  0  0  0  0  0999 V2000
   41.2109   50.1923   10.0501 C   0  0  0  0  0  0  0  0  0  0  0  0
   39.9186   50.2449    9.5537 C   0  0  0  0  0  0  0  0  0  0  0  0
   39.0426   51.3551    9.6923 C   0  0  0  0  0  0  0  0  0  0  0  0
   39.4800   52.5093   10.3811 C   0  0  0  0  0  0  0  0  0  0  0  0
   40.7710   52.4628   10.8790 C   0  0  0  0  0  0  0  0  0  0  0  0
   41.6175   51.3545   10.7286 C   0  0  0  0  0  0  0  0  0  0  0  0
   42.8828   51.6982   11.3933 C   0  0  0  0  0  0  0  0  0  0  0  0
   42.6953   52.9528   11.8749 C   0  0  0  0  0  0  0  0  0  0  0  0
   41.4864   53.3952   11.5810 N   0  0  0  0  0  0  0  0  0  0  0  0
   44.1417   50.8921   11.5469 C   0  0  0  0  0  0  0  0  0  0  0  0
   45.3537   51.8107   11.7502 C   0  0  0  0  0  0  0  0  0  0  0  0
   45.0889   53.0365   12.5112 N   0  0  0  0  0  0  0  0  0  0  0  0
   43.7714   53.6394   12.6187 C   0  0  0  0  0  0  0  0  0  0  0  0
   47.6331   51.8028   12.6164 N   0  0  0  0  0  0  0  0  0  0  0  0
   47.4416   53.1754   13.0847 C   0  0  0  0  0  0  0  0  0  0  0  0
   46.0789   53.7050   13.1408 C   0  0  0  0  0  0  0  0  0  0  0  0
   48.9024   51.1327   12.8321 C   0  0  0  0  0  0  0  0  0  0  0  0
   45.9140   54.7242   13.7617 O   0  0  0  0  0  0  0  0  0  0  0  0
   46.6727   51.1437   11.9810 C   0  0  0  0  0  0  0  0  0  0  0  0
   46.7729   49.9822   11.5530 O   0  0  0  0  0  0  0  0  0  0  0  0
   43.2256   53.7232   14.0867 C   0  0  0  0  0  0  0  0  0  0  0  0
   42.6729   54.8898   14.5895 C   0  0  0  0  0  0  0  0  0  0  0  0
   42.2045   54.8995   15.9052 C   0  0  0  0  0  0  0  0  0  0  0  0
   42.2795   53.7999   16.7008 C   0  0  0  0  0  0  0  0  0  0  0  0
   42.8207   52.6164   16.2530 C   0  0  0  0  0  0  0  0  0  0  0  0
   43.2825   52.5977   14.9551 C   0  0  0  0  0  0  0  0  0  0  0  0
   41.6327   55.9637   16.5564 O   0  0  0  0  0  0  0  0  0  0  0  0
   41.0968   55.2946   17.7361 C   0  0  0  0  0  0  0  0  0  0  0  0
   41.7623   54.0526   17.9379 O   0  0  0  0  0  0  0  0  0  0  0  0
  1  6  2  0  0  0
  1  2  1  0  0  0
  2  3  1  0  0  0
  3  4  2  0  0  0
  4  5  1  0  0  0
  5  6  1  0  0  0
  6  7  1  0  0  0
  7  8  2  0  0  0
  7 10  1  0  0  0
  8  9  1  0  0  0
  8 13  1  0  0  0
  5  9  2  0  0  0
 10 11  1  0  0  0
 11 12  1  0  0  0
 12 16  1  0  0  0
 12 13  1  0  0  0
 13 21  1  0  0  0
 14 17  1  0  0  0
 14 19  1  0  0  0
 14 15  1  0  0  0
 15 16  1  0  0  0
 16 18  2  0  0  0
 21 22  2  0  0  0
 21 26  1  0  0  0
 22 23  1  0  0  0
 23 24  2  0  0  0
 24 29  1  0  0  0
 24 25  1  0  0  0
 25 26  2  0  0  0
 23 27  1  0  0  0
 27 28  1  0  0  0
 28 29  1  0  0  0
 11 19  1  0  0  0
 19 20  2  0  0  0
M  END
> <minimizedAffinity>
-7.82699

$$$$
1XOZ


 29 34  0  0  0  0  0  0  0  0999 V2000
   41.6184   55.1646   16.5648 C   0  0  0  0  0  0  0  0  0  0  0  0
   41.2678   54.7284   17.8321 C   0  0  0  0  0  0  0  0  0  0  0  0
   41.5625   53.4406   18.3554 C   0  0  0  0  0  0  0  0  0  0  0  0
   42.2602   52.5047   17.5585 C   0  0  0  0  0  0  0  0  0  0  0  0
   42.6138   52.9351   16.2910 C   0  0  0  0  0  0  0  0  0  0  0  0
   42.3119   54.2128   15.7970 C   0  0  0  0  0  0  0  0  0  0  0  0
   42.8489   54.2729   14.4298 C   0  0  0  0  0  0  0  0  0  0  0  0
   43.4145   53.0571   14.2225 C   0  0  0  0  0  0  0  0  0  0  0  0
   43.2830   52.2877   15.2876 N   0  0  0  0  0  0  0  0  0  0  0  0
   42.8146   55.3929   13.4285 C   0  0  0  0  0  0  0  0  0  0  0  0
   43.9659   55.2584   12.4233 C   0  0  0  0  0  0  0  0  0  0  0  0
   44.3340   53.8819   12.0742 N   0  0  0  0  0  0  0  0  0  0  0  0
   44.0644   52.7421   12.9337 C   0  0  0  0  0  0  0  0  0  0  0  0
   44.6497   55.9730   10.1943 N   0  0  0  0  0  0  0  0  0  0  0  0
   45.3042   54.6795    9.9991 C   0  0  0  0  0  0  0  0  0  0  0  0
   44.9855   53.5941   10.9269 C   0  0  0  0  0  0  0  0  0  0  0  0
   44.6868   56.9717    9.1417 C   0  0  0  0  0  0  0  0  0  0  0  0
   45.3246   52.4835   10.6058 O   0  0  0  0  0  0  0  0  0  0  0  0
   44.0223   56.2722   11.3247 C   0  0  0  0  0  0  0  0  0  0  0  0
   43.4538   57.3517   11.5561 O   0  0  0  0  0  0  0  0  0  0  0  0
   43.1263   51.6636   12.2881 C   0  0  0  0  0  0  0  0  0  0  0  0
   41.9496   52.0158   11.6473 C   0  0  0  0  0  0  0  0  0  0  0  0
   41.1581   51.0077   11.0926 C   0  0  0  0  0  0  0  0  0  0  0  0
   41.5102   49.6970   11.1677 C   0  0  0  0  0  0  0  0  0  0  0  0
   42.6666   49.2915   11.7942 C   0  0  0  0  0  0  0  0  0  0  0  0
   43.4545   50.2802   12.3416 C   0  0  0  0  0  0  0  0  0  0  0  0
   39.9700   51.1807   10.4278 O   0  0  0  0  0  0  0  0  0  0  0  0
   39.7962   49.8541    9.8477 C   0  0  0  0  0  0  0  0  0  0  0  0
   40.5828   48.9035   10.5577 O   0  0  0  0  0  0  0  0  0  0  0  0
  1  6  2  0  0  0
  1  2  1  0  0  0
  2  3  1  0  0  0
  3  4  2  0  0  0
  4  5  1  0  0  0
  5  6  1  0  0  0
  6  7  1  0  0  0
  7  8  2  0  0  0
  7 10  1  0  0  0
  8  9  1  0  0  0
  8 13  1  0  0  0
  5  9  2  0  0  0
 10 11  1  0  0  0
 11 12  1  0  0  0
 12 16  1  0  0  0
 12 13  1  0  0  0
 13 21  1  0  0  0
 14 17  1  0  0  0
 14 19  1  0  0  0
 14 15  1  0  0  0
 15 16  1  0  0  0
 16 18  2  0  0  0
 21 22  2  0  0  0
 21 26  1  0  0  0
 22 23  1  0  0  0
 23 24  2  0  0  0
 24 29  1  0  0  0
 24 25  1  0  0  0
 25 26  2  0  0  0
 23 27  1  0  0  0
 27 28  1  0  0  0
 28 29  1  0  0  0
 11 19  1  0  0  0
 19 20  2  0  0  0
M  END
> <minimizedAffinity>
-7.79003

$$$$
