1XOZ


 29 34  0  0  0  0  0  0  0  0999 V2000
   24.1561   18.1364   20.8783 C   0  0  0  0  0  0  0  0  0  0  0  0
   24.9813   17.4746   19.9837 C   0  0  0  0  0  0  0  0  0  0  0  0
   25.3161   17.9498   18.6872 C   0  0  0  0  0  0  0  0  0  0  0  0
   24.7892   19.1814   18.2361 C   0  0  0  0  0  0  0  0  0  0  0  0
   23.9642   19.8477   19.1260 C   0  0  0  0  0  0  0  0  0  0  0  0
   23.6489   19.3580   20.4021 C   0  0  0  0  0  0  0  0  0  0  0  0
   22.7544   20.3459   21.0227 C   0  0  0  0  0  0  0  0  0  0  0  0
   22.6113   21.3219   20.0911 C   0  0  0  0  0  0  0  0  0  0  0  0
   23.3043   21.0408   19.0028 N   0  0  0  0  0  0  0  0  0  0  0  0
   22.1048   20.3417   22.3778 C   0  0  0  0  0  0  0  0  0  0  0  0
   21.7777   21.7716   22.8279 C   0  0  0  0  0  0  0  0  0  0  0  0
   21.3866   22.6914   21.7542 N   0  0  0  0  0  0  0  0  0  0  0  0
   21.7644   22.5012   20.3642 C   0  0  0  0  0  0  0  0  0  0  0  0
   20.3484   23.0104   24.3670 N   0  0  0  0  0  0  0  0  0  0  0  0
   20.2433   24.0835   23.3784 C   0  0  0  0  0  0  0  0  0  0  0  0
   20.6664   23.8056   22.0057 C   0  0  0  0  0  0  0  0  0  0  0  0
   19.6657   23.1287   25.6423 C   0  0  0  0  0  0  0  0  0  0  0  0
   20.3375   24.5995   21.1613 O   0  0  0  0  0  0  0  0  0  0  0  0
   21.0680   21.9197   24.1364 C   0  0  0  0  0  0  0  0  0  0  0  0
   21.2034   20.9775   24.9341 O   0  0  0  0  0  0  0  0  0  0  0  0
   20.5474   22.3296   19.3897 C   0  0  0  0  0  0  0  0  0  0  0  0
   20.4534   23.0534   18.2122 C   0  0  0  0  0  0  0  0  0  0  0  0
   19.3443   22.8544   17.3872 C   0  0  0  0  0  0  0  0  0  0  0  0
   18.3592   21.9753   17.7102 C   0  0  0  0  0  0  0  0  0  0  0  0
   18.4012   21.2325   18.8681 C   0  0  0  0  0  0  0  0  0  0  0  0
   19.4936   21.4209   19.6862 C   0  0  0  0  0  0  0  0  0  0  0  0
   19.0958   23.4849   16.1938 O   0  0  0  0  0  0  0  0  0  0  0  0
   18.0002   22.6671   15.6861 C   0  0  0  0  0  0  0  0  0  0  0  0
   17.3850   21.9565   16.7551 O   0  0  0  0  0  0  0  0  0  0  0  0
  1  6  2  0  0  0
  1  2  1  0  0  0
  2  3  1  0  0  0
  3  4  2  0  0  0
  4  5  1  0  0  0
  5  6  1  0  0  0
  6  7  1  0  0  0
  7  8  2  0  0  0
  7 10  1  0  0  0
  8  9  1  0  0  0
  8 13  1  0  0  0
  5  9  2  0  0  0
 10 11  1  0  0  0
 11 12  1  0  0  0
 12 16  1  0  0  0
 12 13  1  0  0  0
 13 21  1  0  0  0
 14 17  1  0  0  0
 14 19  1  0  0  0
 14 15  1  0  0  0
 15 16  1  0  0  0
 16 18  2  0  0  0
 21 22  2  0  0  0
 21 26  1  0  0  0
 22 23  1  0  0  0
 23 24  2  0  0  0
 24 29  1  0  0  0
 24 25  1  0  0  0
 25 26  2  0  0  0
 23 27  1  0  0  0
 27 28  1  0  0  0
 28 29  1  0  0  0
 11 19  1  0  0  0
 19 20  2  0  0  0
M  END
> <minimizedAffinity>
-6.69087

$$$$
1XOZ


 29 34  0  0  0  0  0  0  0  0999 V2000
   24.4720   19.2216   18.8925 C   0  0  0  0  0  0  0  0  0  0  0  0
   25.3300   18.2607   19.4023 C   0  0  0  0  0  0  0  0  0  0  0  0
   25.0651   17.4657   20.5499 C   0  0  0  0  0  0  0  0  0  0  0  0
   23.8514   17.6364   21.2539 C   0  0  0  0  0  0  0  0  0  0  0  0
   22.9896   18.5950   20.7488 C   0  0  0  0  0  0  0  0  0  0  0  0
   23.2736   19.3673   19.6128 C   0  0  0  0  0  0  0  0  0  0  0  0
   22.1219   20.2585   19.4112 C   0  0  0  0  0  0  0  0  0  0  0  0
   21.2640   19.9542   20.4175 C   0  0  0  0  0  0  0  0  0  0  0  0
   21.7572   19.0001   21.1857 N   0  0  0  0  0  0  0  0  0  0  0  0
   21.8804   21.2983   18.3536 C   0  0  0  0  0  0  0  0  0  0  0  0
   20.3774   21.5392   18.1617 C   0  0  0  0  0  0  0  0  0  0  0  0
   19.5660   21.4304   19.3789 N   0  0  0  0  0  0  0  0  0  0  0  0
   19.9736   20.6625   20.5429 C   0  0  0  0  0  0  0  0  0  0  0  0
   18.8015   23.1867   17.2963 N   0  0  0  0  0  0  0  0  0  0  0  0
   17.8595   22.8146   18.3517 C   0  0  0  0  0  0  0  0  0  0  0  0
   18.3564   22.0226   19.4770 C   0  0  0  0  0  0  0  0  0  0  0  0
   18.4460   24.2144   16.3350 C   0  0  0  0  0  0  0  0  0  0  0  0
   17.6464   21.9466   20.4474 O   0  0  0  0  0  0  0  0  0  0  0  0
   19.9852   22.5983   17.1807 C   0  0  0  0  0  0  0  0  0  0  0  0
   20.8261   22.8623   16.3058 O   0  0  0  0  0  0  0  0  0  0  0  0
   20.1345   21.5180   21.8477 C   0  0  0  0  0  0  0  0  0  0  0  0
   19.3824   21.2593   22.9820 C   0  0  0  0  0  0  0  0  0  0  0  0
   19.5732   22.0576   24.1119 C   0  0  0  0  0  0  0  0  0  0  0  0
   20.4713   23.0779   24.1254 C   0  0  0  0  0  0  0  0  0  0  0  0
   21.2424   23.3796   23.0262 C   0  0  0  0  0  0  0  0  0  0  0  0
   21.0623   22.5949   21.9082 C   0  0  0  0  0  0  0  0  0  0  0  0
   18.9158   21.9394   25.3108 O   0  0  0  0  0  0  0  0  0  0  0  0
   19.7329   22.8107   26.1473 C   0  0  0  0  0  0  0  0  0  0  0  0
   20.4772   23.7112   25.3339 O   0  0  0  0  0  0  0  0  0  0  0  0
  1  6  2  0  0  0
  1  2  1  0  0  0
  2  3  1  0  0  0
  3  4  2  0  0  0
  4  5  1  0  0  0
  5  6  1  0  0  0
  6  7  1  0  0  0
  7  8  2  0  0  0
  7 10  1  0  0  0
  8  9  1  0  0  0
  8 13  1  0  0  0
  5  9  2  0  0  0
 10 11  1  0  0  0
 11 12  1  0  0  0
 12 16  1  0  0  0
 12 13  1  0  0  0
 13 21  1  0  0  0
 14 17  1  0  0  0
 14 19  1  0  0  0
 14 15  1  0  0  0
 15 16  1  0  0  0
 16 18  2  0  0  0
 21 22  2  0  0  0
 21 26  1  0  0  0
 22 23  1  0  0  0
 23 24  2  0  0  0
 24 29  1  0  0  0
 24 25  1  0  0  0
 25 26  2  0  0  0
 23 27  1  0  0  0
 27 28  1  0  0  0
 28 29  1  0  0  0
 11 19  1  0  0  0
 19 20  2  0  0  0
M  END
> <minimizedAffinity>
-6.26727

$$$$
1XOZ


 29 34  0  0  0  0  0  0  0  0999 V2000
   20.2522   23.2294   24.5480 C   0  0  0  0  0  0  0  0  0  0  0  0
   20.0459   24.5666   24.2503 C   0  0  0  0  0  0  0  0  0  0  0  0
   19.7815   25.0751   22.9501 C   0  0  0  0  0  0  0  0  0  0  0  0
   19.7179   24.1879   21.8517 C   0  0  0  0  0  0  0  0  0  0  0  0
   19.9228   22.8500   22.1431 C   0  0  0  0  0  0  0  0  0  0  0  0
   20.1817   22.3719   23.4361 C   0  0  0  0  0  0  0  0  0  0  0  0
   20.3414   20.9150   23.3220 C   0  0  0  0  0  0  0  0  0  0  0  0
   20.1690   20.6467   22.0031 C   0  0  0  0  0  0  0  0  0  0  0  0
   19.9275   21.7531   21.3241 N   0  0  0  0  0  0  0  0  0  0  0  0
   20.6331   19.8907   24.3820 C   0  0  0  0  0  0  0  0  0  0  0  0
   20.1276   18.5067   23.9540 C   0  0  0  0  0  0  0  0  0  0  0  0
   20.2215   18.2232   22.5178 N   0  0  0  0  0  0  0  0  0  0  0  0
   20.2627   19.2603   21.5012 C   0  0  0  0  0  0  0  0  0  0  0  0
   20.4420   16.1322   24.4113 N   0  0  0  0  0  0  0  0  0  0  0  0
   20.2010   15.8455   22.9972 C   0  0  0  0  0  0  0  0  0  0  0  0
   20.2431   16.9576   22.0474 C   0  0  0  0  0  0  0  0  0  0  0  0
   20.7177   15.0473   25.3352 C   0  0  0  0  0  0  0  0  0  0  0  0
   20.3006   16.6750   20.8776 O   0  0  0  0  0  0  0  0  0  0  0  0
   20.4054   17.3705   24.8866 C   0  0  0  0  0  0  0  0  0  0  0  0
   20.5939   17.6803   26.0743 O   0  0  0  0  0  0  0  0  0  0  0  0
   21.5719   19.2560   20.6375 C   0  0  0  0  0  0  0  0  0  0  0  0
   21.5309   19.1271   19.2588 C   0  0  0  0  0  0  0  0  0  0  0  0
   22.7324   19.1308   18.5469 C   0  0  0  0  0  0  0  0  0  0  0  0
   23.9342   19.2543   19.1699 C   0  0  0  0  0  0  0  0  0  0  0  0
   24.0327   19.3831   20.5366 C   0  0  0  0  0  0  0  0  0  0  0  0
   22.8517   19.3833   21.2460 C   0  0  0  0  0  0  0  0  0  0  0  0
   22.8713   19.0135   17.1866 O   0  0  0  0  0  0  0  0  0  0  0  0
   24.2736   19.3827   17.0314 C   0  0  0  0  0  0  0  0  0  0  0  0
   24.9591   19.2292   18.2695 O   0  0  0  0  0  0  0  0  0  0  0  0
  1  6  2  0  0  0
  1  2  1  0  0  0
  2  3  1  0  0  0
  3  4  2  0  0  0
  4  5  1  0  0  0
  5  6  1  0  0  0
  6  7  1  0  0  0
  7  8  2  0  0  0
  7 10  1  0  0  0
  8  9  1  0  0  0
  8 13  1  0  0  0
  5  9  2  0  0  0
 10 11  1  0  0  0
 11 12  1  0  0  0
 12 16  1  0  0  0
 12 13  1  0  0  0
 13 21  1  0  0  0
 14 17  1  0  0  0
 14 19  1  0  0  0
 14 15  1  0  0  0
 15 16  1  0  0  0
 16 18  2  0  0  0
 21 22  2  0  0  0
 21 26  1  0  0  0
 22 23  1  0  0  0
 23 24  2  0  0  0
 24 29  1  0  0  0
 24 25  1  0  0  0
 25 26  2  0  0  0
 23 27  1  0  0  0
 27 28  1  0  0  0
 28 29  1  0  0  0
 11 19  1  0  0  0
 19 20  2  0  0  0
M  END
> <minimizedAffinity>
-6.21760

$$$$
1XOZ


 29 34  0  0  0  0  0  0  0  0999 V2000
   17.3246   22.2172   17.0559 C   0  0  0  0  0  0  0  0  0  0  0  0
   16.3358   23.1859   16.9977 C   0  0  0  0  0  0  0  0  0  0  0  0
   16.4252   24.4710   17.5973 C   0  0  0  0  0  0  0  0  0  0  0  0
   17.5884   24.8278   18.3166 C   0  0  0  0  0  0  0  0  0  0  0  0
   18.5803   23.8639   18.3778 C   0  0  0  0  0  0  0  0  0  0  0  0
   18.4689   22.6016   17.7764 C   0  0  0  0  0  0  0  0  0  0  0  0
   19.7168   21.8829   18.0722 C   0  0  0  0  0  0  0  0  0  0  0  0
   20.4549   22.7521   18.8076 C   0  0  0  0  0  0  0  0  0  0  0  0
   19.8075   23.8894   18.9839 N   0  0  0  0  0  0  0  0  0  0  0  0
   20.1468   20.4965   17.6834 C   0  0  0  0  0  0  0  0  0  0  0  0
   21.6771   20.3863   17.6689 C   0  0  0  0  0  0  0  0  0  0  0  0
   22.3715   21.1861   18.6838 N   0  0  0  0  0  0  0  0  0  0  0  0
   21.7953   22.3702   19.2975 C   0  0  0  0  0  0  0  0  0  0  0  0
   23.4756   18.7432   17.7783 N   0  0  0  0  0  0  0  0  0  0  0  0
   24.2863   19.7058   18.5239 C   0  0  0  0  0  0  0  0  0  0  0  0
   23.6224   20.8801   19.0902 C   0  0  0  0  0  0  0  0  0  0  0  0
   24.0096   17.4296   17.4691 C   0  0  0  0  0  0  0  0  0  0  0  0
   24.2397   21.5164   19.9060 O   0  0  0  0  0  0  0  0  0  0  0  0
   22.2522   19.0405   17.3592 C   0  0  0  0  0  0  0  0  0  0  0  0
   21.5162   18.2732   16.7175 O   0  0  0  0  0  0  0  0  0  0  0  0
   21.6153   22.2603   20.8517 C   0  0  0  0  0  0  0  0  0  0  0  0
   20.8589   21.2509   21.4247 C   0  0  0  0  0  0  0  0  0  0  0  0
   20.7378   21.2081   22.8154 C   0  0  0  0  0  0  0  0  0  0  0  0
   21.3378   22.1284   23.6158 C   0  0  0  0  0  0  0  0  0  0  0  0
   22.0983   23.1527   23.0995 C   0  0  0  0  0  0  0  0  0  0  0  0
   22.2252   23.2003   21.7284 C   0  0  0  0  0  0  0  0  0  0  0  0
   20.0306   20.2827   23.5413 O   0  0  0  0  0  0  0  0  0  0  0  0
   20.5190   20.5715   24.8847 C   0  0  0  0  0  0  0  0  0  0  0  0
   21.0743   21.8813   24.9316 O   0  0  0  0  0  0  0  0  0  0  0  0
  1  6  2  0  0  0
  1  2  1  0  0  0
  2  3  1  0  0  0
  3  4  2  0  0  0
  4  5  1  0  0  0
  5  6  1  0  0  0
  6  7  1  0  0  0
  7  8  2  0  0  0
  7 10  1  0  0  0
  8  9  1  0  0  0
  8 13  1  0  0  0
  5  9  2  0  0  0
 10 11  1  0  0  0
 11 12  1  0  0  0
 12 16  1  0  0  0
 12 13  1  0  0  0
 13 21  1  0  0  0
 14 17  1  0  0  0
 14 19  1  0  0  0
 14 15  1  0  0  0
 15 16  1  0  0  0
 16 18  2  0  0  0
 21 22  2  0  0  0
 21 26  1  0  0  0
 22 23  1  0  0  0
 23 24  2  0  0  0
 24 29  1  0  0  0
 24 25  1  0  0  0
 25 26  2  0  0  0
 23 27  1  0  0  0
 27 28  1  0  0  0
 28 29  1  0  0  0
 11 19  1  0  0  0
 19 20  2  0  0  0
M  END
> <minimizedAffinity>
-6.11857

$$$$
1XOZ


 29 34  0  0  0  0  0  0  0  0999 V2000
   24.4095   19.7377   19.3989 C   0  0  0  0  0  0  0  0  0  0  0  0
   24.9648   19.1750   18.2613 C   0  0  0  0  0  0  0  0  0  0  0  0
   24.3906   18.1042   17.5247 C   0  0  0  0  0  0  0  0  0  0  0  0
   23.1658   17.5408   17.9495 C   0  0  0  0  0  0  0  0  0  0  0  0
   22.6057   18.0994   19.0857 C   0  0  0  0  0  0  0  0  0  0  0  0
   23.1920   19.1576   19.7957 C   0  0  0  0  0  0  0  0  0  0  0  0
   22.2986   19.4523   20.9254 C   0  0  0  0  0  0  0  0  0  0  0  0
   21.2761   18.5690   20.8022 C   0  0  0  0  0  0  0  0  0  0  0  0
   21.4476   17.7925   19.7481 N   0  0  0  0  0  0  0  0  0  0  0  0
   22.4255   20.4824   22.0121 C   0  0  0  0  0  0  0  0  0  0  0  0
   21.0481   20.8386   22.5866 C   0  0  0  0  0  0  0  0  0  0  0  0
   20.0871   19.7315   22.6396 N   0  0  0  0  0  0  0  0  0  0  0  0
   20.1675   18.5640   21.7787 C   0  0  0  0  0  0  0  0  0  0  0  0
   19.9934   21.8071   24.5605 N   0  0  0  0  0  0  0  0  0  0  0  0
   18.8684   20.8880   24.3891 C   0  0  0  0  0  0  0  0  0  0  0  0
   19.0346   19.7494   23.4854 C   0  0  0  0  0  0  0  0  0  0  0  0
   19.9952   22.7555   25.6591 C   0  0  0  0  0  0  0  0  0  0  0  0
   18.2098   18.8738   23.5523 O   0  0  0  0  0  0  0  0  0  0  0  0
   21.0239   21.8094   23.7245 C   0  0  0  0  0  0  0  0  0  0  0  0
   22.0047   22.5663   23.8098 O   0  0  0  0  0  0  0  0  0  0  0  0
   20.3481   17.2116   22.5524 C   0  0  0  0  0  0  0  0  0  0  0  0
   21.2467   17.0895   23.5997 C   0  0  0  0  0  0  0  0  0  0  0  0
   21.3603   15.8580   24.2483 C   0  0  0  0  0  0  0  0  0  0  0  0
   20.6174   14.7816   23.8780 C   0  0  0  0  0  0  0  0  0  0  0  0
   19.7118   14.8468   22.8437 C   0  0  0  0  0  0  0  0  0  0  0  0
   19.5916   16.0592   22.2004 C   0  0  0  0  0  0  0  0  0  0  0  0
   22.1958   15.5660   25.2972 O   0  0  0  0  0  0  0  0  0  0  0  0
   21.6563   14.2768   25.7139 C   0  0  0  0  0  0  0  0  0  0  0  0
   20.9039   13.6965   24.6540 O   0  0  0  0  0  0  0  0  0  0  0  0
  1  6  2  0  0  0
  1  2  1  0  0  0
  2  3  1  0  0  0
  3  4  2  0  0  0
  4  5  1  0  0  0
  5  6  1  0  0  0
  6  7  1  0  0  0
  7  8  2  0  0  0
  7 10  1  0  0  0
  8  9  1  0  0  0
  8 13  1  0  0  0
  5  9  2  0  0  0
 10 11  1  0  0  0
 11 12  1  0  0  0
 12 16  1  0  0  0
 12 13  1  0  0  0
 13 21  1  0  0  0
 14 17  1  0  0  0
 14 19  1  0  0  0
 14 15  1  0  0  0
 15 16  1  0  0  0
 16 18  2  0  0  0
 21 22  2  0  0  0
 21 26  1  0  0  0
 22 23  1  0  0  0
 23 24  2  0  0  0
 24 29  1  0  0  0
 24 25  1  0  0  0
 25 26  2  0  0  0
 23 27  1  0  0  0
 27 28  1  0  0  0
 28 29  1  0  0  0
 11 19  1  0  0  0
 19 20  2  0  0  0
M  END
> <minimizedAffinity>
-6.03945

$$$$
