1XOZ


 29 34  0  0  0  0  0  0  0  0999 V2000
   52.4257   54.3247   19.6120 C   0  0  0  0  0  0  0  0  0  0  0  0
   51.1833   54.7656   20.0379 C   0  0  0  0  0  0  0  0  0  0  0  0
   50.1681   53.9294   20.5755 C   0  0  0  0  0  0  0  0  0  0  0  0
   50.3993   52.5406   20.7004 C   0  0  0  0  0  0  0  0  0  0  0  0
   51.6394   52.0941   20.2769 C   0  0  0  0  0  0  0  0  0  0  0  0
   52.6264   52.9401   19.7499 C   0  0  0  0  0  0  0  0  0  0  0  0
   53.7787   52.0886   19.4210 C   0  0  0  0  0  0  0  0  0  0  0  0
   53.3972   50.8340   19.7697 C   0  0  0  0  0  0  0  0  0  0  0  0
   52.1719   50.8331   20.2620 N   0  0  0  0  0  0  0  0  0  0  0  0
   55.1103   52.4543   18.8283 C   0  0  0  0  0  0  0  0  0  0  0  0
   56.1776   51.4205   19.2107 C   0  0  0  0  0  0  0  0  0  0  0  0
   55.6996   50.0376   19.3162 N   0  0  0  0  0  0  0  0  0  0  0  0
   54.3133   49.6909   19.5780 C   0  0  0  0  0  0  0  0  0  0  0  0
   58.3591   50.5803   18.5169 N   0  0  0  0  0  0  0  0  0  0  0  0
   57.9601   49.2399   18.9457 C   0  0  0  0  0  0  0  0  0  0  0  0
   56.5425   48.9884   19.2057 C   0  0  0  0  0  0  0  0  0  0  0  0
   59.6789   50.7997   17.9540 C   0  0  0  0  0  0  0  0  0  0  0  0
   56.2008   47.8372   19.3033 O   0  0  0  0  0  0  0  0  0  0  0  0
   57.5448   51.6210   18.6377 C   0  0  0  0  0  0  0  0  0  0  0  0
   57.8240   52.7830   18.3001 O   0  0  0  0  0  0  0  0  0  0  0  0
   53.6393   48.8501   18.4383 C   0  0  0  0  0  0  0  0  0  0  0  0
   53.7162   49.2360   17.1100 C   0  0  0  0  0  0  0  0  0  0  0  0
   53.0948   48.4436   16.1424 C   0  0  0  0  0  0  0  0  0  0  0  0
   52.4179   47.3112   16.4699 C   0  0  0  0  0  0  0  0  0  0  0  0
   52.3086   46.8832   17.7733 C   0  0  0  0  0  0  0  0  0  0  0  0
   52.9214   47.6579   18.7337 C   0  0  0  0  0  0  0  0  0  0  0  0
   53.0733   48.6791   14.7905 O   0  0  0  0  0  0  0  0  0  0  0  0
   52.5640   47.4008   14.3077 C   0  0  0  0  0  0  0  0  0  0  0  0
   51.8984   46.7112   15.3601 O   0  0  0  0  0  0  0  0  0  0  0  0
  1  6  2  0  0  0
  1  2  1  0  0  0
  2  3  1  0  0  0
  3  4  2  0  0  0
  4  5  1  0  0  0
  5  6  1  0  0  0
  6  7  1  0  0  0
  7  8  2  0  0  0
  7 10  1  0  0  0
  8  9  1  0  0  0
  8 13  1  0  0  0
  5  9  2  0  0  0
 10 11  1  0  0  0
 11 12  1  0  0  0
 12 16  1  0  0  0
 12 13  1  0  0  0
 13 21  1  0  0  0
 14 17  1  0  0  0
 14 19  1  0  0  0
 14 15  1  0  0  0
 15 16  1  0  0  0
 16 18  2  0  0  0
 21 22  2  0  0  0
 21 26  1  0  0  0
 22 23  1  0  0  0
 23 24  2  0  0  0
 24 29  1  0  0  0
 24 25  1  0  0  0
 25 26  2  0  0  0
 23 27  1  0  0  0
 27 28  1  0  0  0
 28 29  1  0  0  0
 11 19  1  0  0  0
 19 20  2  0  0  0
M  END
> <minimizedAffinity>
-7.85738

$$$$
1XOZ


 29 34  0  0  0  0  0  0  0  0999 V2000
   52.9435   46.8091   18.1577 C   0  0  0  0  0  0  0  0  0  0  0  0
   52.5794   46.4206   16.8788 C   0  0  0  0  0  0  0  0  0  0  0  0
   52.4259   47.3045   15.7769 C   0  0  0  0  0  0  0  0  0  0  0  0
   52.6487   48.6889   15.9547 C   0  0  0  0  0  0  0  0  0  0  0  0
   53.0134   49.0833   17.2307 C   0  0  0  0  0  0  0  0  0  0  0  0
   53.1593   48.1907   18.3029 C   0  0  0  0  0  0  0  0  0  0  0  0
   53.5471   48.9954   19.4704 C   0  0  0  0  0  0  0  0  0  0  0  0
   53.6008   50.2718   19.0132 C   0  0  0  0  0  0  0  0  0  0  0  0
   53.2967   50.3262   17.7294 N   0  0  0  0  0  0  0  0  0  0  0  0
   53.8336   48.5700   20.8829 C   0  0  0  0  0  0  0  0  0  0  0  0
   54.7519   49.5826   21.5797 C   0  0  0  0  0  0  0  0  0  0  0  0
   54.5501   50.9821   21.1892 N   0  0  0  0  0  0  0  0  0  0  0  0
   53.9618   51.3794   19.9216 C   0  0  0  0  0  0  0  0  0  0  0  0
   55.4349   50.3325   23.7972 N   0  0  0  0  0  0  0  0  0  0  0  0
   55.5431   51.6978   23.2833 C   0  0  0  0  0  0  0  0  0  0  0  0
   54.9361   52.0009   21.9871 C   0  0  0  0  0  0  0  0  0  0  0  0
   55.7376   50.0546   25.1893 C   0  0  0  0  0  0  0  0  0  0  0  0
   54.8085   53.1646   21.7023 O   0  0  0  0  0  0  0  0  0  0  0  0
   55.0736   49.3218   23.0172 C   0  0  0  0  0  0  0  0  0  0  0  0
   54.9693   48.1413   23.3885 O   0  0  0  0  0  0  0  0  0  0  0  0
   52.6344   52.2028   20.0641 C   0  0  0  0  0  0  0  0  0  0  0  0
   52.5811   53.5521   19.7549 C   0  0  0  0  0  0  0  0  0  0  0  0
   51.3683   54.2286   19.9030 C   0  0  0  0  0  0  0  0  0  0  0  0
   50.2461   53.6002   20.3429 C   0  0  0  0  0  0  0  0  0  0  0  0
   50.2436   52.2624   20.6660 C   0  0  0  0  0  0  0  0  0  0  0  0
   51.4355   51.5871   20.5199 C   0  0  0  0  0  0  0  0  0  0  0  0
   51.1419   55.5571   19.6435 O   0  0  0  0  0  0  0  0  0  0  0  0
   49.6847   55.5906   19.6887 C   0  0  0  0  0  0  0  0  0  0  0  0
   49.1923   54.4645   20.4068 O   0  0  0  0  0  0  0  0  0  0  0  0
  1  6  2  0  0  0
  1  2  1  0  0  0
  2  3  1  0  0  0
  3  4  2  0  0  0
  4  5  1  0  0  0
  5  6  1  0  0  0
  6  7  1  0  0  0
  7  8  2  0  0  0
  7 10  1  0  0  0
  8  9  1  0  0  0
  8 13  1  0  0  0
  5  9  2  0  0  0
 10 11  1  0  0  0
 11 12  1  0  0  0
 12 16  1  0  0  0
 12 13  1  0  0  0
 13 21  1  0  0  0
 14 17  1  0  0  0
 14 19  1  0  0  0
 14 15  1  0  0  0
 15 16  1  0  0  0
 16 18  2  0  0  0
 21 22  2  0  0  0
 21 26  1  0  0  0
 22 23  1  0  0  0
 23 24  2  0  0  0
 24 29  1  0  0  0
 24 25  1  0  0  0
 25 26  2  0  0  0
 23 27  1  0  0  0
 27 28  1  0  0  0
 28 29  1  0  0  0
 11 19  1  0  0  0
 19 20  2  0  0  0
M  END
> <minimizedAffinity>
-6.90817

$$$$
1XOZ


 29 34  0  0  0  0  0  0  0  0999 V2000
   52.1173   55.1885   20.0538 C   0  0  0  0  0  0  0  0  0  0  0  0
   50.7920   55.5762   20.1662 C   0  0  0  0  0  0  0  0  0  0  0  0
   49.7049   54.6887   20.3885 C   0  0  0  0  0  0  0  0  0  0  0  0
   49.9478   53.3014   20.5074 C   0  0  0  0  0  0  0  0  0  0  0  0
   51.2705   52.9079   20.3964 C   0  0  0  0  0  0  0  0  0  0  0  0
   52.3272   53.8040   20.1775 C   0  0  0  0  0  0  0  0  0  0  0  0
   53.5559   52.9991   20.1178 C   0  0  0  0  0  0  0  0  0  0  0  0
   53.1447   51.7192   20.3016 C   0  0  0  0  0  0  0  0  0  0  0  0
   51.8354   51.6627   20.4630 N   0  0  0  0  0  0  0  0  0  0  0  0
   54.9801   53.4275   19.9026 C   0  0  0  0  0  0  0  0  0  0  0  0
   55.9522   52.4017   20.4998 C   0  0  0  0  0  0  0  0  0  0  0  0
   55.5145   51.0039   20.4185 N   0  0  0  0  0  0  0  0  0  0  0  0
   54.1210   50.6103   20.3010 C   0  0  0  0  0  0  0  0  0  0  0  0
   58.2680   51.6523   20.3518 N   0  0  0  0  0  0  0  0  0  0  0  0
   57.8227   50.2820   20.6048 C   0  0  0  0  0  0  0  0  0  0  0  0
   56.3958   49.9828   20.4816 C   0  0  0  0  0  0  0  0  0  0  0  0
   59.6785   51.9327   20.1560 C   0  0  0  0  0  0  0  0  0  0  0  0
   56.0833   48.8201   20.4378 O   0  0  0  0  0  0  0  0  0  0  0  0
   57.4119   52.6650   20.3056 C   0  0  0  0  0  0  0  0  0  0  0  0
   57.7248   53.8495   20.1022 O   0  0  0  0  0  0  0  0  0  0  0  0
   53.7910   49.8136   18.9908 C   0  0  0  0  0  0  0  0  0  0  0  0
   53.1985   48.5620   19.0328 C   0  0  0  0  0  0  0  0  0  0  0  0
   52.9301   47.9044   17.8303 C   0  0  0  0  0  0  0  0  0  0  0  0
   53.2365   48.4574   16.6270 C   0  0  0  0  0  0  0  0  0  0  0  0
   53.8275   49.6963   16.5277 C   0  0  0  0  0  0  0  0  0  0  0  0
   54.0930   50.3530   17.7094 C   0  0  0  0  0  0  0  0  0  0  0  0
   52.3514   46.6677   17.6921 O   0  0  0  0  0  0  0  0  0  0  0  0
   52.0680   46.6669   16.2616 C   0  0  0  0  0  0  0  0  0  0  0  0
   52.8829   47.6295   15.6016 O   0  0  0  0  0  0  0  0  0  0  0  0
  1  6  2  0  0  0
  1  2  1  0  0  0
  2  3  1  0  0  0
  3  4  2  0  0  0
  4  5  1  0  0  0
  5  6  1  0  0  0
  6  7  1  0  0  0
  7  8  2  0  0  0
  7 10  1  0  0  0
  8  9  1  0  0  0
  8 13  1  0  0  0
  5  9  2  0  0  0
 10 11  1  0  0  0
 11 12  1  0  0  0
 12 16  1  0  0  0
 12 13  1  0  0  0
 13 21  1  0  0  0
 14 17  1  0  0  0
 14 19  1  0  0  0
 14 15  1  0  0  0
 15 16  1  0  0  0
 16 18  2  0  0  0
 21 22  2  0  0  0
 21 26  1  0  0  0
 22 23  1  0  0  0
 23 24  2  0  0  0
 24 29  1  0  0  0
 24 25  1  0  0  0
 25 26  2  0  0  0
 23 27  1  0  0  0
 27 28  1  0  0  0
 28 29  1  0  0  0
 11 19  1  0  0  0
 19 20  2  0  0  0
M  END
> <minimizedAffinity>
-6.35616

$$$$
1XOZ


 29 34  0  0  0  0  0  0  0  0999 V2000
   51.9365   47.0661   16.2328 C   0  0  0  0  0  0  0  0  0  0  0  0
   52.0583   46.5007   17.4916 C   0  0  0  0  0  0  0  0  0  0  0  0
   52.9357   46.9672   18.5072 C   0  0  0  0  0  0  0  0  0  0  0  0
   53.7639   48.0849   18.2568 C   0  0  0  0  0  0  0  0  0  0  0  0
   53.6462   48.6546   17.0005 C   0  0  0  0  0  0  0  0  0  0  0  0
   52.7714   48.1759   16.0141 C   0  0  0  0  0  0  0  0  0  0  0  0
   52.9479   49.0415   14.8391 C   0  0  0  0  0  0  0  0  0  0  0  0
   53.8900   49.9452   15.2089 C   0  0  0  0  0  0  0  0  0  0  0  0
   54.2920   49.7277   16.4478 N   0  0  0  0  0  0  0  0  0  0  0  0
   52.2740   48.9949   13.4968 C   0  0  0  0  0  0  0  0  0  0  0  0
   52.2974   50.3760   12.8288 C   0  0  0  0  0  0  0  0  0  0  0  0
   53.4942   51.1806   13.0975 N   0  0  0  0  0  0  0  0  0  0  0  0
   54.3354   50.9926   14.2670 C   0  0  0  0  0  0  0  0  0  0  0  0
   52.1063   51.4462   10.6460 N   0  0  0  0  0  0  0  0  0  0  0  0
   53.0824   52.4492   11.0715 C   0  0  0  0  0  0  0  0  0  0  0  0
   53.8717   52.1821   12.2741 C   0  0  0  0  0  0  0  0  0  0  0  0
   51.5305   51.5122    9.3154 C   0  0  0  0  0  0  0  0  0  0  0  0
   54.8346   52.8814   12.4621 O   0  0  0  0  0  0  0  0  0  0  0  0
   51.7155   50.4687   11.4538 C   0  0  0  0  0  0  0  0  0  0  0  0
   50.8877   49.5917   11.1573 O   0  0  0  0  0  0  0  0  0  0  0  0
   55.8160   50.5983   13.9317 C   0  0  0  0  0  0  0  0  0  0  0  0
   56.1120   49.5164   13.1186 C   0  0  0  0  0  0  0  0  0  0  0  0
   57.4511   49.2176   12.8580 C   0  0  0  0  0  0  0  0  0  0  0  0
   58.4653   49.9559   13.3815 C   0  0  0  0  0  0  0  0  0  0  0  0
   58.2279   51.0390   14.1967 C   0  0  0  0  0  0  0  0  0  0  0  0
   56.9093   51.3423   14.4563 C   0  0  0  0  0  0  0  0  0  0  0  0
   57.9173   48.1880   12.0794 O   0  0  0  0  0  0  0  0  0  0  0  0
   59.3186   48.5697   11.9478 C   0  0  0  0  0  0  0  0  0  0  0  0
   59.6789   49.4718   12.9884 O   0  0  0  0  0  0  0  0  0  0  0  0
  1  6  2  0  0  0
  1  2  1  0  0  0
  2  3  1  0  0  0
  3  4  2  0  0  0
  4  5  1  0  0  0
  5  6  1  0  0  0
  6  7  1  0  0  0
  7  8  2  0  0  0
  7 10  1  0  0  0
  8  9  1  0  0  0
  8 13  1  0  0  0
  5  9  2  0  0  0
 10 11  1  0  0  0
 11 12  1  0  0  0
 12 16  1  0  0  0
 12 13  1  0  0  0
 13 21  1  0  0  0
 14 17  1  0  0  0
 14 19  1  0  0  0
 14 15  1  0  0  0
 15 16  1  0  0  0
 16 18  2  0  0  0
 21 22  2  0  0  0
 21 26  1  0  0  0
 22 23  1  0  0  0
 23 24  2  0  0  0
 24 29  1  0  0  0
 24 25  1  0  0  0
 25 26  2  0  0  0
 23 27  1  0  0  0
 27 28  1  0  0  0
 28 29  1  0  0  0
 11 19  1  0  0  0
 19 20  2  0  0  0
M  END
> <minimizedAffinity>
-6.17075

$$$$
1XOZ


 29 34  0  0  0  0  0  0  0  0999 V2000
   53.0630   49.4895   16.6217 C   0  0  0  0  0  0  0  0  0  0  0  0
   53.0172   48.2841   15.9404 C   0  0  0  0  0  0  0  0  0  0  0  0
   52.9288   47.0077   16.5585 C   0  0  0  0  0  0  0  0  0  0  0  0
   52.8841   46.9148   17.9682 C   0  0  0  0  0  0  0  0  0  0  0  0
   52.9290   48.1163   18.6545 C   0  0  0  0  0  0  0  0  0  0  0  0
   53.0157   49.3649   18.0212 C   0  0  0  0  0  0  0  0  0  0  0  0
   53.0429   50.3766   19.0874 C   0  0  0  0  0  0  0  0  0  0  0  0
   52.9717   49.6688   20.2429 C   0  0  0  0  0  0  0  0  0  0  0  0
   52.9050   48.3727   19.9990 N   0  0  0  0  0  0  0  0  0  0  0  0
   53.1310   51.8738   18.9944 C   0  0  0  0  0  0  0  0  0  0  0  0
   52.5363   52.5319   20.2464 C   0  0  0  0  0  0  0  0  0  0  0  0
   52.7386   51.7931   21.4975 N   0  0  0  0  0  0  0  0  0  0  0  0
   52.9773   50.3609   21.5481 C   0  0  0  0  0  0  0  0  0  0  0  0
   52.5729   54.6178   21.5090 N   0  0  0  0  0  0  0  0  0  0  0  0
   52.4411   53.8504   22.7474 C   0  0  0  0  0  0  0  0  0  0  0  0
   52.6816   52.4081   22.6983 C   0  0  0  0  0  0  0  0  0  0  0  0
   52.6523   56.0662   21.5574 C   0  0  0  0  0  0  0  0  0  0  0  0
   52.8226   51.8416   23.7522 O   0  0  0  0  0  0  0  0  0  0  0  0
   52.6119   54.0240   20.3230 C   0  0  0  0  0  0  0  0  0  0  0  0
   52.7156   54.6161   19.2363 O   0  0  0  0  0  0  0  0  0  0  0  0
   54.3563   49.9656   22.1824 C   0  0  0  0  0  0  0  0  0  0  0  0
   55.5473   50.5026   21.7214 C   0  0  0  0  0  0  0  0  0  0  0  0
   56.7418   50.1099   22.3292 C   0  0  0  0  0  0  0  0  0  0  0  0
   56.7650   49.2171   23.3539 C   0  0  0  0  0  0  0  0  0  0  0  0
   55.6122   48.6516   23.8491 C   0  0  0  0  0  0  0  0  0  0  0  0
   54.4291   49.0360   23.2570 C   0  0  0  0  0  0  0  0  0  0  0  0
   58.0020   50.5410   21.9982 O   0  0  0  0  0  0  0  0  0  0  0  0
   58.7612   50.0373   23.1368 C   0  0  0  0  0  0  0  0  0  0  0  0
   58.0415   48.9906   23.7792 O   0  0  0  0  0  0  0  0  0  0  0  0
  1  6  2  0  0  0
  1  2  1  0  0  0
  2  3  1  0  0  0
  3  4  2  0  0  0
  4  5  1  0  0  0
  5  6  1  0  0  0
  6  7  1  0  0  0
  7  8  2  0  0  0
  7 10  1  0  0  0
  8  9  1  0  0  0
  8 13  1  0  0  0
  5  9  2  0  0  0
 10 11  1  0  0  0
 11 12  1  0  0  0
 12 16  1  0  0  0
 12 13  1  0  0  0
 13 21  1  0  0  0
 14 17  1  0  0  0
 14 19  1  0  0  0
 14 15  1  0  0  0
 15 16  1  0  0  0
 16 18  2  0  0  0
 21 22  2  0  0  0
 21 26  1  0  0  0
 22 23  1  0  0  0
 23 24  2  0  0  0
 24 29  1  0  0  0
 24 25  1  0  0  0
 25 26  2  0  0  0
 23 27  1  0  0  0
 27 28  1  0  0  0
 28 29  1  0  0  0
 11 19  1  0  0  0
 19 20  2  0  0  0
M  END
> <minimizedAffinity>
-5.85108

$$$$
