1XOZ


 29 34  0  0  0  0  0  0  0  0999 V2000
   40.0745   16.0599   19.2984 C   0  0  0  0  0  0  0  0  0  0  0  0
   40.0029   15.9408   20.6768 C   0  0  0  0  0  0  0  0  0  0  0  0
   38.8133   15.6708   21.4054 C   0  0  0  0  0  0  0  0  0  0  0  0
   37.5916   15.5070   20.7138 C   0  0  0  0  0  0  0  0  0  0  0  0
   37.6568   15.6244   19.3359 C   0  0  0  0  0  0  0  0  0  0  0  0
   38.8445   15.8908   18.6388 C   0  0  0  0  0  0  0  0  0  0  0  0
   38.4929   15.9411   17.2123 C   0  0  0  0  0  0  0  0  0  0  0  0
   37.1571   15.7061   17.1730 C   0  0  0  0  0  0  0  0  0  0  0  0
   36.6742   15.5227   18.3882 N   0  0  0  0  0  0  0  0  0  0  0  0
   39.3623   16.1931   16.0129 C   0  0  0  0  0  0  0  0  0  0  0  0
   38.7422   15.5752   14.7528 C   0  0  0  0  0  0  0  0  0  0  0  0
   37.2765   15.6006   14.7000 N   0  0  0  0  0  0  0  0  0  0  0  0
   36.4372   15.6828   15.8831 C   0  0  0  0  0  0  0  0  0  0  0  0
   38.8013   15.7323   12.3201 N   0  0  0  0  0  0  0  0  0  0  0  0
   37.3717   15.4245   12.2827 C   0  0  0  0  0  0  0  0  0  0  0  0
   36.6101   15.5152   13.5286 C   0  0  0  0  0  0  0  0  0  0  0  0
   39.5276   15.9595   11.0842 C   0  0  0  0  0  0  0  0  0  0  0  0
   35.4089   15.5134   13.4360 O   0  0  0  0  0  0  0  0  0  0  0  0
   39.4688   15.8009   13.4648 C   0  0  0  0  0  0  0  0  0  0  0  0
   40.6812   16.0506   13.5651 O   0  0  0  0  0  0  0  0  0  0  0  0
   35.5267   16.9590   15.9323 C   0  0  0  0  0  0  0  0  0  0  0  0
   34.2122   16.8958   16.3652 C   0  0  0  0  0  0  0  0  0  0  0  0
   33.4538   18.0684   16.3858 C   0  0  0  0  0  0  0  0  0  0  0  0
   33.9696   19.2626   15.9912 C   0  0  0  0  0  0  0  0  0  0  0  0
   35.2679   19.3816   15.5505 C   0  0  0  0  0  0  0  0  0  0  0  0
   36.0237   18.2299   15.5300 C   0  0  0  0  0  0  0  0  0  0  0  0
   32.1451   18.1828   16.7827 O   0  0  0  0  0  0  0  0  0  0  0  0
   32.0209   19.6333   16.8687 C   0  0  0  0  0  0  0  0  0  0  0  0
   33.0421   20.2575   16.0982 O   0  0  0  0  0  0  0  0  0  0  0  0
  1  6  2  0  0  0
  1  2  1  0  0  0
  2  3  1  0  0  0
  3  4  2  0  0  0
  4  5  1  0  0  0
  5  6  1  0  0  0
  6  7  1  0  0  0
  7  8  2  0  0  0
  7 10  1  0  0  0
  8  9  1  0  0  0
  8 13  1  0  0  0
  5  9  2  0  0  0
 10 11  1  0  0  0
 11 12  1  0  0  0
 12 16  1  0  0  0
 12 13  1  0  0  0
 13 21  1  0  0  0
 14 17  1  0  0  0
 14 19  1  0  0  0
 14 15  1  0  0  0
 15 16  1  0  0  0
 16 18  2  0  0  0
 21 22  2  0  0  0
 21 26  1  0  0  0
 22 23  1  0  0  0
 23 24  2  0  0  0
 24 29  1  0  0  0
 24 25  1  0  0  0
 25 26  2  0  0  0
 23 27  1  0  0  0
 27 28  1  0  0  0
 28 29  1  0  0  0
 11 19  1  0  0  0
 19 20  2  0  0  0
M  END
> <minimizedAffinity>
-7.14570

$$$$
1XOZ


 29 34  0  0  0  0  0  0  0  0999 V2000
   32.9344   18.0457   14.2186 C   0  0  0  0  0  0  0  0  0  0  0  0
   32.4545   19.3249   14.4481 C   0  0  0  0  0  0  0  0  0  0  0  0
   33.1736   20.3513   15.1177 C   0  0  0  0  0  0  0  0  0  0  0  0
   34.4753   20.0909   15.6031 C   0  0  0  0  0  0  0  0  0  0  0  0
   34.9605   18.8142   15.3762 C   0  0  0  0  0  0  0  0  0  0  0  0
   34.2311   17.8175   14.7114 C   0  0  0  0  0  0  0  0  0  0  0  0
   35.0854   16.6216   14.6792 C   0  0  0  0  0  0  0  0  0  0  0  0
   36.2279   16.9910   15.3111 C   0  0  0  0  0  0  0  0  0  0  0  0
   36.1609   18.2476   15.7110 N   0  0  0  0  0  0  0  0  0  0  0  0
   34.8196   15.2617   14.0977 C   0  0  0  0  0  0  0  0  0  0  0  0
   36.1352   14.5514   13.7531 C   0  0  0  0  0  0  0  0  0  0  0  0
   37.2532   14.8306   14.6610 N   0  0  0  0  0  0  0  0  0  0  0  0
   37.3382   16.0303   15.4759 C   0  0  0  0  0  0  0  0  0  0  0  0
   37.0591   12.3312   13.3488 N   0  0  0  0  0  0  0  0  0  0  0  0
   38.3076   12.7541   13.9829 C   0  0  0  0  0  0  0  0  0  0  0  0
   38.3027   13.9878   14.7693 C   0  0  0  0  0  0  0  0  0  0  0  0
   36.9294   10.9823   12.8289 C   0  0  0  0  0  0  0  0  0  0  0  0
   39.2513   14.1826   15.4861 O   0  0  0  0  0  0  0  0  0  0  0  0
   36.0285   13.1572   13.2215 C   0  0  0  0  0  0  0  0  0  0  0  0
   34.9458   12.8637   12.6888 O   0  0  0  0  0  0  0  0  0  0  0  0
   37.3750   15.7525   17.0191 C   0  0  0  0  0  0  0  0  0  0  0  0
   38.4981   16.0330   17.7801 C   0  0  0  0  0  0  0  0  0  0  0  0
   38.4672   15.7627   19.1499 C   0  0  0  0  0  0  0  0  0  0  0  0
   37.3697   15.2316   19.7510 C   0  0  0  0  0  0  0  0  0  0  0  0
   36.2286   14.9318   19.0426 C   0  0  0  0  0  0  0  0  0  0  0  0
   36.2499   15.1983   17.6910 C   0  0  0  0  0  0  0  0  0  0  0  0
   39.4858   15.9781   20.0439 O   0  0  0  0  0  0  0  0  0  0  0  0
   38.7741   15.7982   21.3039 C   0  0  0  0  0  0  0  0  0  0  0  0
   37.5784   15.0565   21.0880 O   0  0  0  0  0  0  0  0  0  0  0  0
  1  6  2  0  0  0
  1  2  1  0  0  0
  2  3  1  0  0  0
  3  4  2  0  0  0
  4  5  1  0  0  0
  5  6  1  0  0  0
  6  7  1  0  0  0
  7  8  2  0  0  0
  7 10  1  0  0  0
  8  9  1  0  0  0
  8 13  1  0  0  0
  5  9  2  0  0  0
 10 11  1  0  0  0
 11 12  1  0  0  0
 12 16  1  0  0  0
 12 13  1  0  0  0
 13 21  1  0  0  0
 14 17  1  0  0  0
 14 19  1  0  0  0
 14 15  1  0  0  0
 15 16  1  0  0  0
 16 18  2  0  0  0
 21 22  2  0  0  0
 21 26  1  0  0  0
 22 23  1  0  0  0
 23 24  2  0  0  0
 24 29  1  0  0  0
 24 25  1  0  0  0
 25 26  2  0  0  0
 23 27  1  0  0  0
 27 28  1  0  0  0
 28 29  1  0  0  0
 11 19  1  0  0  0
 19 20  2  0  0  0
M  END
> <minimizedAffinity>
-6.72625

$$$$
1XOZ


 29 34  0  0  0  0  0  0  0  0999 V2000
   34.9479   12.8962   11.9384 C   0  0  0  0  0  0  0  0  0  0  0  0
   34.5878   12.9729   10.6028 C   0  0  0  0  0  0  0  0  0  0  0  0
   34.7210   14.1334    9.7938 C   0  0  0  0  0  0  0  0  0  0  0  0
   35.2526   15.3181   10.3523 C   0  0  0  0  0  0  0  0  0  0  0  0
   35.6148   15.2473   11.6867 C   0  0  0  0  0  0  0  0  0  0  0  0
   35.4741   14.0888   12.4649 C   0  0  0  0  0  0  0  0  0  0  0  0
   35.9630   14.4236   13.8102 C   0  0  0  0  0  0  0  0  0  0  0  0
   36.3471   15.7225   13.7294 C   0  0  0  0  0  0  0  0  0  0  0  0
   36.1503   16.1980   12.5133 N   0  0  0  0  0  0  0  0  0  0  0  0
   36.0465   13.5723   15.0457 C   0  0  0  0  0  0  0  0  0  0  0  0
   37.1300   14.0987   15.9960 C   0  0  0  0  0  0  0  0  0  0  0  0
   37.2911   15.5567   16.0147 N   0  0  0  0  0  0  0  0  0  0  0  0
   36.8988   16.4164   14.9112 C   0  0  0  0  0  0  0  0  0  0  0  0
   37.8224   14.0239   18.3330 N   0  0  0  0  0  0  0  0  0  0  0  0
   38.2842   15.4074   18.2226 C   0  0  0  0  0  0  0  0  0  0  0  0
   37.8534   16.1920   17.0653 C   0  0  0  0  0  0  0  0  0  0  0  0
   37.9579   13.3114   19.5902 C   0  0  0  0  0  0  0  0  0  0  0  0
   38.0237   17.3835   17.1189 O   0  0  0  0  0  0  0  0  0  0  0  0
   37.2849   13.3851   17.3016 C   0  0  0  0  0  0  0  0  0  0  0  0
   36.8800   12.2113   17.3270 O   0  0  0  0  0  0  0  0  0  0  0  0
   35.7973   17.4694   15.2828 C   0  0  0  0  0  0  0  0  0  0  0  0
   34.6210   17.0970   15.9128 C   0  0  0  0  0  0  0  0  0  0  0  0
   33.6799   18.0829   16.2172 C   0  0  0  0  0  0  0  0  0  0  0  0
   33.8869   19.3907   15.9100 C   0  0  0  0  0  0  0  0  0  0  0  0
   35.0359   19.8151   15.2826 C   0  0  0  0  0  0  0  0  0  0  0  0
   35.9709   18.8490   14.9814 C   0  0  0  0  0  0  0  0  0  0  0  0
   32.4701   17.8883   16.8354 O   0  0  0  0  0  0  0  0  0  0  0  0
   32.1030   19.2668   17.1376 C   0  0  0  0  0  0  0  0  0  0  0  0
   32.8309   20.1606   16.3023 O   0  0  0  0  0  0  0  0  0  0  0  0
  1  6  2  0  0  0
  1  2  1  0  0  0
  2  3  1  0  0  0
  3  4  2  0  0  0
  4  5  1  0  0  0
  5  6  1  0  0  0
  6  7  1  0  0  0
  7  8  2  0  0  0
  7 10  1  0  0  0
  8  9  1  0  0  0
  8 13  1  0  0  0
  5  9  2  0  0  0
 10 11  1  0  0  0
 11 12  1  0  0  0
 12 16  1  0  0  0
 12 13  1  0  0  0
 13 21  1  0  0  0
 14 17  1  0  0  0
 14 19  1  0  0  0
 14 15  1  0  0  0
 15 16  1  0  0  0
 16 18  2  0  0  0
 21 22  2  0  0  0
 21 26  1  0  0  0
 22 23  1  0  0  0
 23 24  2  0  0  0
 24 29  1  0  0  0
 24 25  1  0  0  0
 25 26  2  0  0  0
 23 27  1  0  0  0
 27 28  1  0  0  0
 28 29  1  0  0  0
 11 19  1  0  0  0
 19 20  2  0  0  0
M  END
> <minimizedAffinity>
-6.58159

$$$$
1XOZ


 29 34  0  0  0  0  0  0  0  0999 V2000
   35.9736   15.4206   19.0128 C   0  0  0  0  0  0  0  0  0  0  0  0
   36.9133   15.4580   20.0300 C   0  0  0  0  0  0  0  0  0  0  0  0
   38.1607   16.1344   19.9554 C   0  0  0  0  0  0  0  0  0  0  0  0
   38.5093   16.8305   18.7757 C   0  0  0  0  0  0  0  0  0  0  0  0
   37.5738   16.7972   17.7557 C   0  0  0  0  0  0  0  0  0  0  0  0
   36.3479   16.1225   17.8536 C   0  0  0  0  0  0  0  0  0  0  0  0
   35.6537   16.3232   16.5735 C   0  0  0  0  0  0  0  0  0  0  0  0
   36.4992   17.0830   15.8326 C   0  0  0  0  0  0  0  0  0  0  0  0
   37.6005   17.3580   16.5072 N   0  0  0  0  0  0  0  0  0  0  0  0
   34.3107   15.8275   16.1164 C   0  0  0  0  0  0  0  0  0  0  0  0
   33.7425   16.7339   15.0166 C   0  0  0  0  0  0  0  0  0  0  0  0
   34.7370   17.3104   14.1052 N   0  0  0  0  0  0  0  0  0  0  0  0
   36.1341   17.4906   14.4603 C   0  0  0  0  0  0  0  0  0  0  0  0
   32.1171   16.7436   13.1988 N   0  0  0  0  0  0  0  0  0  0  0  0
   33.0106   17.6077   12.4275 C   0  0  0  0  0  0  0  0  0  0  0  0
   34.3977   17.7441   12.8722 C   0  0  0  0  0  0  0  0  0  0  0  0
   30.8434   16.3313   12.6383 C   0  0  0  0  0  0  0  0  0  0  0  0
   35.1739   18.2407   12.0961 O   0  0  0  0  0  0  0  0  0  0  0  0
   32.4334   16.3266   14.4181 C   0  0  0  0  0  0  0  0  0  0  0  0
   31.7185   15.5992   15.1267 O   0  0  0  0  0  0  0  0  0  0  0  0
   37.1322   16.6949   13.5489 C   0  0  0  0  0  0  0  0  0  0  0  0
   38.2047   17.3176   12.9313 C   0  0  0  0  0  0  0  0  0  0  0  0
   39.0573   16.5528   12.1322 C   0  0  0  0  0  0  0  0  0  0  0  0
   38.8607   15.2210   11.9442 C   0  0  0  0  0  0  0  0  0  0  0  0
   37.8106   14.5531   12.5318 C   0  0  0  0  0  0  0  0  0  0  0  0
   36.9664   15.2998   13.3241 C   0  0  0  0  0  0  0  0  0  0  0  0
   40.1591   17.0079   11.4522 O   0  0  0  0  0  0  0  0  0  0  0  0
   40.7786   15.7426   11.0758 C   0  0  0  0  0  0  0  0  0  0  0  0
   39.8175   14.6938   11.1268 O   0  0  0  0  0  0  0  0  0  0  0  0
  1  6  2  0  0  0
  1  2  1  0  0  0
  2  3  1  0  0  0
  3  4  2  0  0  0
  4  5  1  0  0  0
  5  6  1  0  0  0
  6  7  1  0  0  0
  7  8  2  0  0  0
  7 10  1  0  0  0
  8  9  1  0  0  0
  8 13  1  0  0  0
  5  9  2  0  0  0
 10 11  1  0  0  0
 11 12  1  0  0  0
 12 16  1  0  0  0
 12 13  1  0  0  0
 13 21  1  0  0  0
 14 17  1  0  0  0
 14 19  1  0  0  0
 14 15  1  0  0  0
 15 16  1  0  0  0
 16 18  2  0  0  0
 21 22  2  0  0  0
 21 26  1  0  0  0
 22 23  1  0  0  0
 23 24  2  0  0  0
 24 29  1  0  0  0
 24 25  1  0  0  0
 25 26  2  0  0  0
 23 27  1  0  0  0
 27 28  1  0  0  0
 28 29  1  0  0  0
 11 19  1  0  0  0
 19 20  2  0  0  0
M  END
> <minimizedAffinity>
-6.46821

$$$$
1XOZ


 29 34  0  0  0  0  0  0  0  0999 V2000
   33.4772   19.0936   16.5560 C   0  0  0  0  0  0  0  0  0  0  0  0
   32.6347   19.9867   15.9142 C   0  0  0  0  0  0  0  0  0  0  0  0
   32.2709   19.9138   14.5426 C   0  0  0  0  0  0  0  0  0  0  0  0
   32.7848   18.8721   13.7372 C   0  0  0  0  0  0  0  0  0  0  0  0
   33.6270   17.9760   14.3732 C   0  0  0  0  0  0  0  0  0  0  0  0
   33.9709   18.0688   15.7299 C   0  0  0  0  0  0  0  0  0  0  0  0
   34.8759   16.9452   16.0124 C   0  0  0  0  0  0  0  0  0  0  0  0
   34.9964   16.2880   14.8315 C   0  0  0  0  0  0  0  0  0  0  0  0
   34.2810   16.8750   13.8895 N   0  0  0  0  0  0  0  0  0  0  0  0
   35.5544   16.5520   17.2942 C   0  0  0  0  0  0  0  0  0  0  0  0
   35.8874   15.0543   17.2955 C   0  0  0  0  0  0  0  0  0  0  0  0
   36.2530   14.4936   15.9901 N   0  0  0  0  0  0  0  0  0  0  0  0
   35.8460   15.0839   14.7265 C   0  0  0  0  0  0  0  0  0  0  0  0
   37.3462   13.4221   18.3698 N   0  0  0  0  0  0  0  0  0  0  0  0
   37.4273   12.6887   17.1067 C   0  0  0  0  0  0  0  0  0  0  0  0
   36.9756   13.3576   15.8864 C   0  0  0  0  0  0  0  0  0  0  0  0
   38.0558   12.9355   19.5387 C   0  0  0  0  0  0  0  0  0  0  0  0
   37.2842   12.8493   14.8386 O   0  0  0  0  0  0  0  0  0  0  0  0
   36.6246   14.5295   18.4866 C   0  0  0  0  0  0  0  0  0  0  0  0
   36.5088   15.1939   19.5294 O   0  0  0  0  0  0  0  0  0  0  0  0
   37.0422   15.5400   13.8203 C   0  0  0  0  0  0  0  0  0  0  0  0
   38.0748   16.3172   14.3192 C   0  0  0  0  0  0  0  0  0  0  0  0
   39.1112   16.6901   13.4605 C   0  0  0  0  0  0  0  0  0  0  0  0
   39.1304   16.3139   12.1545 C   0  0  0  0  0  0  0  0  0  0  0  0
   38.1296   15.5442   11.6068 C   0  0  0  0  0  0  0  0  0  0  0  0
   37.1048   15.1696   12.4480 C   0  0  0  0  0  0  0  0  0  0  0  0
   40.2037   17.4531   13.7889 O   0  0  0  0  0  0  0  0  0  0  0  0
   41.0367   17.2428   12.6105 C   0  0  0  0  0  0  0  0  0  0  0  0
   40.2370   16.7982   11.5200 O   0  0  0  0  0  0  0  0  0  0  0  0
  1  6  2  0  0  0
  1  2  1  0  0  0
  2  3  1  0  0  0
  3  4  2  0  0  0
  4  5  1  0  0  0
  5  6  1  0  0  0
  6  7  1  0  0  0
  7  8  2  0  0  0
  7 10  1  0  0  0
  8  9  1  0  0  0
  8 13  1  0  0  0
  5  9  2  0  0  0
 10 11  1  0  0  0
 11 12  1  0  0  0
 12 16  1  0  0  0
 12 13  1  0  0  0
 13 21  1  0  0  0
 14 17  1  0  0  0
 14 19  1  0  0  0
 14 15  1  0  0  0
 15 16  1  0  0  0
 16 18  2  0  0  0
 21 22  2  0  0  0
 21 26  1  0  0  0
 22 23  1  0  0  0
 23 24  2  0  0  0
 24 29  1  0  0  0
 24 25  1  0  0  0
 25 26  2  0  0  0
 23 27  1  0  0  0
 27 28  1  0  0  0
 28 29  1  0  0  0
 11 19  1  0  0  0
 19 20  2  0  0  0
M  END
> <minimizedAffinity>
-6.32036

$$$$
