1XOZ


 29 34  0  0  0  0  0  0  0  0999 V2000
   28.1773   48.7940   41.3132 C   0  0  0  0  0  0  0  0  0  0  0  0
   26.9575   48.1383   41.2773 C   0  0  0  0  0  0  0  0  0  0  0  0
   26.5802   47.0819   42.1494 C   0  0  0  0  0  0  0  0  0  0  0  0
   27.4853   46.6345   43.1385 C   0  0  0  0  0  0  0  0  0  0  0  0
   28.7060   47.2863   43.1797 C   0  0  0  0  0  0  0  0  0  0  0  0
   29.0552   48.3280   42.3075 C   0  0  0  0  0  0  0  0  0  0  0  0
   30.4179   48.7424   42.6714 C   0  0  0  0  0  0  0  0  0  0  0  0
   30.7643   47.9355   43.7058 C   0  0  0  0  0  0  0  0  0  0  0  0
   29.7851   47.1003   44.0011 N   0  0  0  0  0  0  0  0  0  0  0  0
   31.2932   49.8087   42.0756 C   0  0  0  0  0  0  0  0  0  0  0  0
   32.3284   50.2959   43.0980 C   0  0  0  0  0  0  0  0  0  0  0  0
   32.8291   49.2696   44.0188 N   0  0  0  0  0  0  0  0  0  0  0  0
   32.0912   48.0608   44.3431 C   0  0  0  0  0  0  0  0  0  0  0  0
   34.4807   51.4327   43.2446 N   0  0  0  0  0  0  0  0  0  0  0  0
   34.8250   50.5958   44.3939 C   0  0  0  0  0  0  0  0  0  0  0  0
   34.0125   49.4074   44.6544 C   0  0  0  0  0  0  0  0  0  0  0  0
   35.4212   52.4279   42.7635 C   0  0  0  0  0  0  0  0  0  0  0  0
   34.4566   48.6017   45.4325 O   0  0  0  0  0  0  0  0  0  0  0  0
   33.3134   51.3172   42.6243 C   0  0  0  0  0  0  0  0  0  0  0  0
   32.9575   51.9996   41.6497 O   0  0  0  0  0  0  0  0  0  0  0  0
   32.8306   46.7357   43.9460 C   0  0  0  0  0  0  0  0  0  0  0  0
   33.5445   46.6298   42.7635 C   0  0  0  0  0  0  0  0  0  0  0  0
   34.1809   45.4223   42.4680 C   0  0  0  0  0  0  0  0  0  0  0  0
   34.1154   44.3538   43.3056 C   0  0  0  0  0  0  0  0  0  0  0  0
   33.4186   44.4036   44.4914 C   0  0  0  0  0  0  0  0  0  0  0  0
   32.7903   45.5923   44.7918 C   0  0  0  0  0  0  0  0  0  0  0  0
   34.9242   45.1486   41.3472 O   0  0  0  0  0  0  0  0  0  0  0  0
   35.5501   43.8930   41.7454 C   0  0  0  0  0  0  0  0  0  0  0  0
   34.8109   43.2927   42.8035 O   0  0  0  0  0  0  0  0  0  0  0  0
  1  6  2  0  0  0
  1  2  1  0  0  0
  2  3  1  0  0  0
  3  4  2  0  0  0
  4  5  1  0  0  0
  5  6  1  0  0  0
  6  7  1  0  0  0
  7  8  2  0  0  0
  7 10  1  0  0  0
  8  9  1  0  0  0
  8 13  1  0  0  0
  5  9  2  0  0  0
 10 11  1  0  0  0
 11 12  1  0  0  0
 12 16  1  0  0  0
 12 13  1  0  0  0
 13 21  1  0  0  0
 14 17  1  0  0  0
 14 19  1  0  0  0
 14 15  1  0  0  0
 15 16  1  0  0  0
 16 18  2  0  0  0
 21 22  2  0  0  0
 21 26  1  0  0  0
 22 23  1  0  0  0
 23 24  2  0  0  0
 24 29  1  0  0  0
 24 25  1  0  0  0
 25 26  2  0  0  0
 23 27  1  0  0  0
 27 28  1  0  0  0
 28 29  1  0  0  0
 11 19  1  0  0  0
 19 20  2  0  0  0
M  END
> <minimizedAffinity>
-6.35365

$$$$
1XOZ


 29 34  0  0  0  0  0  0  0  0999 V2000
   27.7011   46.6746   43.3766 C   0  0  0  0  0  0  0  0  0  0  0  0
   26.5661   46.9019   42.6155 C   0  0  0  0  0  0  0  0  0  0  0  0
   26.4955   47.7978   41.5148 C   0  0  0  0  0  0  0  0  0  0  0  0
   27.6422   48.5323   41.1362 C   0  0  0  0  0  0  0  0  0  0  0  0
   28.7798   48.3090   41.8930 C   0  0  0  0  0  0  0  0  0  0  0  0
   28.8248   47.4180   42.9755 C   0  0  0  0  0  0  0  0  0  0  0  0
   30.1940   47.4716   43.5079 C   0  0  0  0  0  0  0  0  0  0  0  0
   30.8407   48.3675   42.7202 C   0  0  0  0  0  0  0  0  0  0  0  0
   30.0338   48.8488   41.7924 N   0  0  0  0  0  0  0  0  0  0  0  0
   30.8098   46.7321   44.6621 C   0  0  0  0  0  0  0  0  0  0  0  0
   32.3305   46.6245   44.4893 C   0  0  0  0  0  0  0  0  0  0  0  0
   32.9695   47.7755   43.8421 N   0  0  0  0  0  0  0  0  0  0  0  0
   32.2625   48.6887   42.9606 C   0  0  0  0  0  0  0  0  0  0  0  0
   34.3759   46.2442   45.7613 N   0  0  0  0  0  0  0  0  0  0  0  0
   35.0795   47.1700   44.8739 C   0  0  0  0  0  0  0  0  0  0  0  0
   34.2838   48.0386   44.0062 C   0  0  0  0  0  0  0  0  0  0  0  0
   35.0889   45.5952   46.8463 C   0  0  0  0  0  0  0  0  0  0  0  0
   34.8566   48.9596   43.4816 O   0  0  0  0  0  0  0  0  0  0  0  0
   33.0890   45.9654   45.5975 C   0  0  0  0  0  0  0  0  0  0  0  0
   32.4359   45.1855   46.3098 O   0  0  0  0  0  0  0  0  0  0  0  0
   32.2370   50.1730   43.4667 C   0  0  0  0  0  0  0  0  0  0  0  0
   32.5766   51.2285   42.6361 C   0  0  0  0  0  0  0  0  0  0  0  0
   32.5334   52.5274   43.1474 C   0  0  0  0  0  0  0  0  0  0  0  0
   32.1711   52.7801   44.4330 C   0  0  0  0  0  0  0  0  0  0  0  0
   31.8264   51.7694   45.3011 C   0  0  0  0  0  0  0  0  0  0  0  0
   31.8636   50.4851   44.8036 C   0  0  0  0  0  0  0  0  0  0  0  0
   32.8369   53.6794   42.4660 O   0  0  0  0  0  0  0  0  0  0  0  0
   32.3266   54.6793   43.3968 C   0  0  0  0  0  0  0  0  0  0  0  0
   32.2063   54.1178   44.6993 O   0  0  0  0  0  0  0  0  0  0  0  0
  1  6  2  0  0  0
  1  2  1  0  0  0
  2  3  1  0  0  0
  3  4  2  0  0  0
  4  5  1  0  0  0
  5  6  1  0  0  0
  6  7  1  0  0  0
  7  8  2  0  0  0
  7 10  1  0  0  0
  8  9  1  0  0  0
  8 13  1  0  0  0
  5  9  2  0  0  0
 10 11  1  0  0  0
 11 12  1  0  0  0
 12 16  1  0  0  0
 12 13  1  0  0  0
 13 21  1  0  0  0
 14 17  1  0  0  0
 14 19  1  0  0  0
 14 15  1  0  0  0
 15 16  1  0  0  0
 16 18  2  0  0  0
 21 22  2  0  0  0
 21 26  1  0  0  0
 22 23  1  0  0  0
 23 24  2  0  0  0
 24 29  1  0  0  0
 24 25  1  0  0  0
 25 26  2  0  0  0
 23 27  1  0  0  0
 27 28  1  0  0  0
 28 29  1  0  0  0
 11 19  1  0  0  0
 19 20  2  0  0  0
M  END
> <minimizedAffinity>
-6.08334

$$$$
1XOZ


 29 34  0  0  0  0  0  0  0  0999 V2000
   28.5963   48.7054   41.5919 C   0  0  0  0  0  0  0  0  0  0  0  0
   27.3392   48.4372   41.0752 C   0  0  0  0  0  0  0  0  0  0  0  0
   26.4428   47.4629   41.5912 C   0  0  0  0  0  0  0  0  0  0  0  0
   26.8216   46.6871   42.7103 C   0  0  0  0  0  0  0  0  0  0  0  0
   28.0768   46.9509   43.2314 C   0  0  0  0  0  0  0  0  0  0  0  0
   28.9440   47.9193   42.7044 C   0  0  0  0  0  0  0  0  0  0  0  0
   30.1611   47.8873   43.5282 C   0  0  0  0  0  0  0  0  0  0  0  0
   29.9287   46.9268   44.4580 C   0  0  0  0  0  0  0  0  0  0  0  0
   28.7344   46.3885   44.2921 N   0  0  0  0  0  0  0  0  0  0  0  0
   31.4191   48.7024   43.4226 C   0  0  0  0  0  0  0  0  0  0  0  0
   32.1339   48.7765   44.7782 C   0  0  0  0  0  0  0  0  0  0  0  0
   32.0264   47.5722   45.6088 N   0  0  0  0  0  0  0  0  0  0  0  0
   30.9501   46.6054   45.4760 C   0  0  0  0  0  0  0  0  0  0  0  0
   34.3190   49.2233   45.7641 N   0  0  0  0  0  0  0  0  0  0  0  0
   34.0386   48.2247   46.7956 C   0  0  0  0  0  0  0  0  0  0  0  0
   32.9209   47.3045   46.5843 C   0  0  0  0  0  0  0  0  0  0  0  0
   35.5802   49.9416   45.7728 C   0  0  0  0  0  0  0  0  0  0  0  0
   32.8643   46.3395   47.3034 O   0  0  0  0  0  0  0  0  0  0  0  0
   33.4394   49.5062   44.8118 C   0  0  0  0  0  0  0  0  0  0  0  0
   33.6124   50.3456   43.9130 O   0  0  0  0  0  0  0  0  0  0  0  0
   31.4313   45.1633   45.0901 C   0  0  0  0  0  0  0  0  0  0  0  0
   32.4084   44.9575   44.1298 C   0  0  0  0  0  0  0  0  0  0  0  0
   32.7932   43.6484   43.8318 C   0  0  0  0  0  0  0  0  0  0  0  0
   32.2342   42.5775   44.4549 C   0  0  0  0  0  0  0  0  0  0  0  0
   31.2586   42.7247   45.4144 C   0  0  0  0  0  0  0  0  0  0  0  0
   30.8754   44.0132   45.7164 C   0  0  0  0  0  0  0  0  0  0  0  0
   33.7393   43.2688   42.9130 O   0  0  0  0  0  0  0  0  0  0  0  0
   33.9029   41.8637   43.2673 C   0  0  0  0  0  0  0  0  0  0  0  0
   32.7685   41.4086   43.9969 O   0  0  0  0  0  0  0  0  0  0  0  0
  1  6  2  0  0  0
  1  2  1  0  0  0
  2  3  1  0  0  0
  3  4  2  0  0  0
  4  5  1  0  0  0
  5  6  1  0  0  0
  6  7  1  0  0  0
  7  8  2  0  0  0
  7 10  1  0  0  0
  8  9  1  0  0  0
  8 13  1  0  0  0
  5  9  2  0  0  0
 10 11  1  0  0  0
 11 12  1  0  0  0
 12 16  1  0  0  0
 12 13  1  0  0  0
 13 21  1  0  0  0
 14 17  1  0  0  0
 14 19  1  0  0  0
 14 15  1  0  0  0
 15 16  1  0  0  0
 16 18  2  0  0  0
 21 22  2  0  0  0
 21 26  1  0  0  0
 22 23  1  0  0  0
 23 24  2  0  0  0
 24 29  1  0  0  0
 24 25  1  0  0  0
 25 26  2  0  0  0
 23 27  1  0  0  0
 27 28  1  0  0  0
 28 29  1  0  0  0
 11 19  1  0  0  0
 19 20  2  0  0  0
M  END
> <minimizedAffinity>
-5.82735

$$$$
1XOZ


 29 34  0  0  0  0  0  0  0  0999 V2000
   31.4469   43.5695   45.0855 C   0  0  0  0  0  0  0  0  0  0  0  0
   32.4096   42.7122   44.5781 C   0  0  0  0  0  0  0  0  0  0  0  0
   33.4505   43.0978   43.6910 C   0  0  0  0  0  0  0  0  0  0  0  0
   33.5465   44.4432   43.2683 C   0  0  0  0  0  0  0  0  0  0  0  0
   32.5874   45.3048   43.7726 C   0  0  0  0  0  0  0  0  0  0  0  0
   31.5692   44.9000   44.6484 C   0  0  0  0  0  0  0  0  0  0  0  0
   30.7670   46.0963   44.9425 C   0  0  0  0  0  0  0  0  0  0  0  0
   31.3559   47.0944   44.2368 C   0  0  0  0  0  0  0  0  0  0  0  0
   32.4006   46.6451   43.5658 N   0  0  0  0  0  0  0  0  0  0  0  0
   29.5541   46.2535   45.8157 C   0  0  0  0  0  0  0  0  0  0  0  0
   29.4192   47.7022   46.3025 C   0  0  0  0  0  0  0  0  0  0  0  0
   29.8583   48.7263   45.3483 N   0  0  0  0  0  0  0  0  0  0  0  0
   30.8136   48.4678   44.2847 C   0  0  0  0  0  0  0  0  0  0  0  0
   27.7802   49.2754   47.1885 N   0  0  0  0  0  0  0  0  0  0  0  0
   28.4533   50.3559   46.4680 C   0  0  0  0  0  0  0  0  0  0  0  0
   29.4156   49.9997   45.4251 C   0  0  0  0  0  0  0  0  0  0  0  0
   26.6102   49.5615   47.9984 C   0  0  0  0  0  0  0  0  0  0  0  0
   29.7610   50.8787   44.6770 O   0  0  0  0  0  0  0  0  0  0  0  0
   28.2178   48.0240   47.1338 C   0  0  0  0  0  0  0  0  0  0  0  0
   27.6975   47.0641   47.7255 O   0  0  0  0  0  0  0  0  0  0  0  0
   30.2423   48.7017   42.8428 C   0  0  0  0  0  0  0  0  0  0  0  0
   30.9969   49.3112   41.8536 C   0  0  0  0  0  0  0  0  0  0  0  0
   30.4303   49.4901   40.5898 C   0  0  0  0  0  0  0  0  0  0  0  0
   29.1632   49.0861   40.3085 C   0  0  0  0  0  0  0  0  0  0  0  0
   28.3695   48.4777   41.2540 C   0  0  0  0  0  0  0  0  0  0  0  0
   28.9221   48.2948   42.5027 C   0  0  0  0  0  0  0  0  0  0  0  0
   31.0344   50.0719   39.5034 O   0  0  0  0  0  0  0  0  0  0  0  0
   30.0966   49.7015   38.4498 C   0  0  0  0  0  0  0  0  0  0  0  0
   28.8333   49.3686   39.0151 O   0  0  0  0  0  0  0  0  0  0  0  0
  1  6  2  0  0  0
  1  2  1  0  0  0
  2  3  1  0  0  0
  3  4  2  0  0  0
  4  5  1  0  0  0
  5  6  1  0  0  0
  6  7  1  0  0  0
  7  8  2  0  0  0
  7 10  1  0  0  0
  8  9  1  0  0  0
  8 13  1  0  0  0
  5  9  2  0  0  0
 10 11  1  0  0  0
 11 12  1  0  0  0
 12 16  1  0  0  0
 12 13  1  0  0  0
 13 21  1  0  0  0
 14 17  1  0  0  0
 14 19  1  0  0  0
 14 15  1  0  0  0
 15 16  1  0  0  0
 16 18  2  0  0  0
 21 22  2  0  0  0
 21 26  1  0  0  0
 22 23  1  0  0  0
 23 24  2  0  0  0
 24 29  1  0  0  0
 24 25  1  0  0  0
 25 26  2  0  0  0
 23 27  1  0  0  0
 27 28  1  0  0  0
 28 29  1  0  0  0
 11 19  1  0  0  0
 19 20  2  0  0  0
M  END
> <minimizedAffinity>
-5.82499

$$$$
1XOZ


 29 34  0  0  0  0  0  0  0  0999 V2000
   28.3188   44.1436   44.7378 C   0  0  0  0  0  0  0  0  0  0  0  0
   29.2682   43.1719   45.0091 C   0  0  0  0  0  0  0  0  0  0  0  0
   30.6653   43.4107   45.1093 C   0  0  0  0  0  0  0  0  0  0  0  0
   31.1662   44.7193   44.9236 C   0  0  0  0  0  0  0  0  0  0  0  0
   30.2220   45.6949   44.6528 C   0  0  0  0  0  0  0  0  0  0  0  0
   28.8469   45.4342   44.5595 C   0  0  0  0  0  0  0  0  0  0  0  0
   28.1948   46.7171   44.2594 C   0  0  0  0  0  0  0  0  0  0  0  0
   29.2073   47.6184   44.1994 C   0  0  0  0  0  0  0  0  0  0  0  0
   30.3709   47.0366   44.4257 N   0  0  0  0  0  0  0  0  0  0  0  0
   26.7409   47.0345   44.0504 C   0  0  0  0  0  0  0  0  0  0  0  0
   26.4567   48.5098   44.3619 C   0  0  0  0  0  0  0  0  0  0  0  0
   27.5376   49.4408   44.0203 N   0  0  0  0  0  0  0  0  0  0  0  0
   28.9298   49.0402   43.9096 C   0  0  0  0  0  0  0  0  0  0  0  0
   24.8367   50.2781   43.9203 N   0  0  0  0  0  0  0  0  0  0  0  0
   25.9280   51.2520   43.9113 C   0  0  0  0  0  0  0  0  0  0  0  0
   27.3006   50.7545   43.8167 C   0  0  0  0  0  0  0  0  0  0  0  0
   23.4706   50.7164   43.7005 C   0  0  0  0  0  0  0  0  0  0  0  0
   28.1568   51.5600   43.5526 O   0  0  0  0  0  0  0  0  0  0  0  0
   25.0571   48.9877   44.1371 C   0  0  0  0  0  0  0  0  0  0  0  0
   24.1765   48.1124   44.1642 O   0  0  0  0  0  0  0  0  0  0  0  0
   29.5477   49.2660   42.4858 C   0  0  0  0  0  0  0  0  0  0  0  0
   28.8436   48.9599   41.3326 C   0  0  0  0  0  0  0  0  0  0  0  0
   29.4500   49.1846   40.0948 C   0  0  0  0  0  0  0  0  0  0  0  0
   30.7076   49.6905   39.9940 C   0  0  0  0  0  0  0  0  0  0  0  0
   31.4520   50.0098   41.1066 C   0  0  0  0  0  0  0  0  0  0  0  0
   30.8599   49.7939   42.3317 C   0  0  0  0  0  0  0  0  0  0  0  0
   28.8977   48.9383   38.8628 O   0  0  0  0  0  0  0  0  0  0  0  0
   29.8482   49.6344   38.0033 C   0  0  0  0  0  0  0  0  0  0  0  0
   31.0823   49.8185   38.6883 O   0  0  0  0  0  0  0  0  0  0  0  0
  1  6  2  0  0  0
  1  2  1  0  0  0
  2  3  1  0  0  0
  3  4  2  0  0  0
  4  5  1  0  0  0
  5  6  1  0  0  0
  6  7  1  0  0  0
  7  8  2  0  0  0
  7 10  1  0  0  0
  8  9  1  0  0  0
  8 13  1  0  0  0
  5  9  2  0  0  0
 10 11  1  0  0  0
 11 12  1  0  0  0
 12 16  1  0  0  0
 12 13  1  0  0  0
 13 21  1  0  0  0
 14 17  1  0  0  0
 14 19  1  0  0  0
 14 15  1  0  0  0
 15 16  1  0  0  0
 16 18  2  0  0  0
 21 22  2  0  0  0
 21 26  1  0  0  0
 22 23  1  0  0  0
 23 24  2  0  0  0
 24 29  1  0  0  0
 24 25  1  0  0  0
 25 26  2  0  0  0
 23 27  1  0  0  0
 27 28  1  0  0  0
 28 29  1  0  0  0
 11 19  1  0  0  0
 19 20  2  0  0  0
M  END
> <minimizedAffinity>
-5.34723

$$$$
