1XOZ


 29 34  0  0  0  0  0  0  0  0999 V2000
   57.6355   31.8647   39.7309 C   0  0  0  0  0  0  0  0  0  0  0  0
   56.6152   32.1215   40.6321 C   0  0  0  0  0  0  0  0  0  0  0  0
   55.5878   33.0839   40.4393 C   0  0  0  0  0  0  0  0  0  0  0  0
   55.5686   33.8591   39.2575 C   0  0  0  0  0  0  0  0  0  0  0  0
   56.5855   33.6065   38.3527 C   0  0  0  0  0  0  0  0  0  0  0  0
   57.5890   32.6498   38.5656 C   0  0  0  0  0  0  0  0  0  0  0  0
   58.4670   32.6915   37.3873 C   0  0  0  0  0  0  0  0  0  0  0  0
   57.9307   33.6455   36.5852 C   0  0  0  0  0  0  0  0  0  0  0  0
   56.8512   34.1716   37.1344 N   0  0  0  0  0  0  0  0  0  0  0  0
   59.6991   31.8905   37.0737 C   0  0  0  0  0  0  0  0  0  0  0  0
   59.9292   31.8183   35.5584 C   0  0  0  0  0  0  0  0  0  0  0  0
   59.5406   33.0180   34.8089 N   0  0  0  0  0  0  0  0  0  0  0  0
   58.5567   33.9736   35.2879 C   0  0  0  0  0  0  0  0  0  0  0  0
   61.6736   31.3910   33.9089 N   0  0  0  0  0  0  0  0  0  0  0  0
   61.0580   32.3822   33.0266 C   0  0  0  0  0  0  0  0  0  0  0  0
   60.0614   33.2911   33.5933 C   0  0  0  0  0  0  0  0  0  0  0  0
   62.8700   30.6863   33.4863 C   0  0  0  0  0  0  0  0  0  0  0  0
   59.7603   34.2524   32.9325 O   0  0  0  0  0  0  0  0  0  0  0  0
   61.1594   31.1027   35.0976 C   0  0  0  0  0  0  0  0  0  0  0  0
   61.6280   30.2690   35.8899 O   0  0  0  0  0  0  0  0  0  0  0  0
   59.1213   35.4224   35.4934 C   0  0  0  0  0  0  0  0  0  0  0  0
   60.2493   35.6590   36.2621 C   0  0  0  0  0  0  0  0  0  0  0  0
   60.7018   36.9724   36.4059 C   0  0  0  0  0  0  0  0  0  0  0  0
   60.0651   38.0185   35.8161 C   0  0  0  0  0  0  0  0  0  0  0  0
   58.9397   37.8405   35.0441 C   0  0  0  0  0  0  0  0  0  0  0  0
   58.4885   36.5473   34.8948 C   0  0  0  0  0  0  0  0  0  0  0  0
   61.7954   37.3806   37.1276 O   0  0  0  0  0  0  0  0  0  0  0  0
   61.9219   38.7562   36.6602 C   0  0  0  0  0  0  0  0  0  0  0  0
   60.6893   39.1977   36.1016 O   0  0  0  0  0  0  0  0  0  0  0  0
  1  6  2  0  0  0
  1  2  1  0  0  0
  2  3  1  0  0  0
  3  4  2  0  0  0
  4  5  1  0  0  0
  5  6  1  0  0  0
  6  7  1  0  0  0
  7  8  2  0  0  0
  7 10  1  0  0  0
  8  9  1  0  0  0
  8 13  1  0  0  0
  5  9  2  0  0  0
 10 11  1  0  0  0
 11 12  1  0  0  0
 12 16  1  0  0  0
 12 13  1  0  0  0
 13 21  1  0  0  0
 14 17  1  0  0  0
 14 19  1  0  0  0
 14 15  1  0  0  0
 15 16  1  0  0  0
 16 18  2  0  0  0
 21 22  2  0  0  0
 21 26  1  0  0  0
 22 23  1  0  0  0
 23 24  2  0  0  0
 24 29  1  0  0  0
 24 25  1  0  0  0
 25 26  2  0  0  0
 23 27  1  0  0  0
 27 28  1  0  0  0
 28 29  1  0  0  0
 11 19  1  0  0  0
 19 20  2  0  0  0
M  END
> <minimizedAffinity>
-6.03898

$$$$
1XOZ


 29 34  0  0  0  0  0  0  0  0999 V2000
   63.5386   34.0569   28.4181 C   0  0  0  0  0  0  0  0  0  0  0  0
   64.6851   34.8225   28.2818 C   0  0  0  0  0  0  0  0  0  0  0  0
   65.5431   35.1932   29.3521 C   0  0  0  0  0  0  0  0  0  0  0  0
   65.2413   34.7739   30.6678 C   0  0  0  0  0  0  0  0  0  0  0  0
   64.0968   34.0080   30.8102 C   0  0  0  0  0  0  0  0  0  0  0  0
   63.2656   33.6542   29.7371 C   0  0  0  0  0  0  0  0  0  0  0  0
   62.1699   32.8520   30.3003 C   0  0  0  0  0  0  0  0  0  0  0  0
   62.4284   32.7923   31.6309 C   0  0  0  0  0  0  0  0  0  0  0  0
   63.5329   33.4526   31.9272 N   0  0  0  0  0  0  0  0  0  0  0  0
   60.9937   32.2122   29.6182 C   0  0  0  0  0  0  0  0  0  0  0  0
   60.4736   31.0218   30.4347 C   0  0  0  0  0  0  0  0  0  0  0  0
   60.5723   31.1711   31.8907 N   0  0  0  0  0  0  0  0  0  0  0  0
   61.5234   32.0578   32.5387 C   0  0  0  0  0  0  0  0  0  0  0  0
   58.4904   29.6368   30.7427 N   0  0  0  0  0  0  0  0  0  0  0  0
   58.8060   29.5319   32.1672 C   0  0  0  0  0  0  0  0  0  0  0  0
   59.7920   30.4555   32.7288 C   0  0  0  0  0  0  0  0  0  0  0  0
   57.3167   28.9710   30.2082 C   0  0  0  0  0  0  0  0  0  0  0  0
   59.8491   30.5297   33.9299 O   0  0  0  0  0  0  0  0  0  0  0  0
   59.2605   30.3228   29.9078 C   0  0  0  0  0  0  0  0  0  0  0  0
   59.0530   30.4451   28.6896 O   0  0  0  0  0  0  0  0  0  0  0  0
   60.8585   33.1832   33.4056 C   0  0  0  0  0  0  0  0  0  0  0  0
   59.8004   33.9382   32.9263 C   0  0  0  0  0  0  0  0  0  0  0  0
   59.2521   34.9254   33.7481 C   0  0  0  0  0  0  0  0  0  0  0  0
   59.7298   35.1643   34.9981 C   0  0  0  0  0  0  0  0  0  0  0  0
   60.7798   34.4457   35.5226 C   0  0  0  0  0  0  0  0  0  0  0  0
   61.3245   33.4679   34.7194 C   0  0  0  0  0  0  0  0  0  0  0  0
   58.2081   35.7583   33.4319 O   0  0  0  0  0  0  0  0  0  0  0  0
   57.9135   36.3225   34.7440 C   0  0  0  0  0  0  0  0  0  0  0  0
   59.0378   36.1721   35.6040 O   0  0  0  0  0  0  0  0  0  0  0  0
  1  6  2  0  0  0
  1  2  1  0  0  0
  2  3  1  0  0  0
  3  4  2  0  0  0
  4  5  1  0  0  0
  5  6  1  0  0  0
  6  7  1  0  0  0
  7  8  2  0  0  0
  7 10  1  0  0  0
  8  9  1  0  0  0
  8 13  1  0  0  0
  5  9  2  0  0  0
 10 11  1  0  0  0
 11 12  1  0  0  0
 12 16  1  0  0  0
 12 13  1  0  0  0
 13 21  1  0  0  0
 14 17  1  0  0  0
 14 19  1  0  0  0
 14 15  1  0  0  0
 15 16  1  0  0  0
 16 18  2  0  0  0
 21 22  2  0  0  0
 21 26  1  0  0  0
 22 23  1  0  0  0
 23 24  2  0  0  0
 24 29  1  0  0  0
 24 25  1  0  0  0
 25 26  2  0  0  0
 23 27  1  0  0  0
 27 28  1  0  0  0
 28 29  1  0  0  0
 11 19  1  0  0  0
 19 20  2  0  0  0
M  END
> <minimizedAffinity>
-5.72194

$$$$
1XOZ


 29 34  0  0  0  0  0  0  0  0999 V2000
   60.8620   43.8397   38.5863 C   0  0  0  0  0  0  0  0  0  0  0  0
   60.1767   44.1762   39.7423 C   0  0  0  0  0  0  0  0  0  0  0  0
   59.9669   43.3020   40.8426 C   0  0  0  0  0  0  0  0  0  0  0  0
   60.4749   41.9838   40.7953 C   0  0  0  0  0  0  0  0  0  0  0  0
   61.1612   41.6419   39.6425 C   0  0  0  0  0  0  0  0  0  0  0  0
   61.3561   42.5237   38.5693 C   0  0  0  0  0  0  0  0  0  0  0  0
   62.1185   41.7860   37.5517 C   0  0  0  0  0  0  0  0  0  0  0  0
   62.3133   40.5539   38.0857 C   0  0  0  0  0  0  0  0  0  0  0  0
   61.7671   40.4676   39.2848 N   0  0  0  0  0  0  0  0  0  0  0  0
   62.6053   42.2300   36.2011 C   0  0  0  0  0  0  0  0  0  0  0  0
   63.8193   41.4010   35.7616 C   0  0  0  0  0  0  0  0  0  0  0  0
   63.8053   39.9972   36.1870 N   0  0  0  0  0  0  0  0  0  0  0  0
   63.0531   39.5191   37.3343 C   0  0  0  0  0  0  0  0  0  0  0  0
   65.0712   40.7528   33.7719 N   0  0  0  0  0  0  0  0  0  0  0  0
   65.3233   39.4453   34.3774 C   0  0  0  0  0  0  0  0  0  0  0  0
   64.5298   39.0567   35.5435 C   0  0  0  0  0  0  0  0  0  0  0  0
   65.5969   41.0557   32.4533 C   0  0  0  0  0  0  0  0  0  0  0  0
   64.5649   37.8964   35.8662 O   0  0  0  0  0  0  0  0  0  0  0  0
   64.3757   41.6899   34.4033 C   0  0  0  0  0  0  0  0  0  0  0  0
   64.1323   42.8198   33.9490 O   0  0  0  0  0  0  0  0  0  0  0  0
   61.9602   38.4510   36.9811 C   0  0  0  0  0  0  0  0  0  0  0  0
   60.9359   38.7285   36.0906 C   0  0  0  0  0  0  0  0  0  0  0  0
   59.9939   37.7341   35.8181 C   0  0  0  0  0  0  0  0  0  0  0  0
   60.0552   36.5089   36.4035 C   0  0  0  0  0  0  0  0  0  0  0  0
   61.0496   36.1810   37.2967 C   0  0  0  0  0  0  0  0  0  0  0  0
   61.9846   37.1555   37.5688 C   0  0  0  0  0  0  0  0  0  0  0  0
   58.9224   37.8411   34.9672 O   0  0  0  0  0  0  0  0  0  0  0  0
   58.5173   36.4432   34.8754 C   0  0  0  0  0  0  0  0  0  0  0  0
   59.0301   35.7122   35.9839 O   0  0  0  0  0  0  0  0  0  0  0  0
  1  6  2  0  0  0
  1  2  1  0  0  0
  2  3  1  0  0  0
  3  4  2  0  0  0
  4  5  1  0  0  0
  5  6  1  0  0  0
  6  7  1  0  0  0
  7  8  2  0  0  0
  7 10  1  0  0  0
  8  9  1  0  0  0
  8 13  1  0  0  0
  5  9  2  0  0  0
 10 11  1  0  0  0
 11 12  1  0  0  0
 12 16  1  0  0  0
 12 13  1  0  0  0
 13 21  1  0  0  0
 14 17  1  0  0  0
 14 19  1  0  0  0
 14 15  1  0  0  0
 15 16  1  0  0  0
 16 18  2  0  0  0
 21 22  2  0  0  0
 21 26  1  0  0  0
 22 23  1  0  0  0
 23 24  2  0  0  0
 24 29  1  0  0  0
 24 25  1  0  0  0
 25 26  2  0  0  0
 23 27  1  0  0  0
 27 28  1  0  0  0
 28 29  1  0  0  0
 11 19  1  0  0  0
 19 20  2  0  0  0
M  END
> <minimizedAffinity>
-5.14354

$$$$
1XOZ


 29 34  0  0  0  0  0  0  0  0999 V2000
   59.1090   35.8422   33.7290 C   0  0  0  0  0  0  0  0  0  0  0  0
   58.3419   36.3348   34.7722 C   0  0  0  0  0  0  0  0  0  0  0  0
   57.9135   35.5725   35.8922 C   0  0  0  0  0  0  0  0  0  0  0  0
   58.2714   34.2085   35.9881 C   0  0  0  0  0  0  0  0  0  0  0  0
   59.0385   33.7107   34.9486 C   0  0  0  0  0  0  0  0  0  0  0  0
   59.4499   34.4840   33.8531 C   0  0  0  0  0  0  0  0  0  0  0  0
   60.2325   33.5959   32.9813 C   0  0  0  0  0  0  0  0  0  0  0  0
   60.2261   32.3939   33.6106 C   0  0  0  0  0  0  0  0  0  0  0  0
   59.5438   32.4558   34.7394 N   0  0  0  0  0  0  0  0  0  0  0  0
   60.9135   33.8836   31.6730 C   0  0  0  0  0  0  0  0  0  0  0  0
   62.0673   32.9010   31.4334 C   0  0  0  0  0  0  0  0  0  0  0  0
   61.8474   31.5423   31.9411 N   0  0  0  0  0  0  0  0  0  0  0  0
   60.9232   31.2335   33.0186 C   0  0  0  0  0  0  0  0  0  0  0  0
   63.4513   31.9772   29.6509 N   0  0  0  0  0  0  0  0  0  0  0  0
   63.4851   30.6997   30.3626 C   0  0  0  0  0  0  0  0  0  0  0  0
   62.5280   30.4853   31.4482 C   0  0  0  0  0  0  0  0  0  0  0  0
   64.1512   32.1233   28.3878 C   0  0  0  0  0  0  0  0  0  0  0  0
   62.3956   29.3553   31.8447 O   0  0  0  0  0  0  0  0  0  0  0  0
   62.8003   33.0270   30.1355 C   0  0  0  0  0  0  0  0  0  0  0  0
   62.7383   34.1389   29.5858 O   0  0  0  0  0  0  0  0  0  0  0  0
   59.7626   30.2627   32.6055 C   0  0  0  0  0  0  0  0  0  0  0  0
   59.0135   30.4739   31.4594 C   0  0  0  0  0  0  0  0  0  0  0  0
   57.9938   29.5723   31.1468 C   0  0  0  0  0  0  0  0  0  0  0  0
   57.7178   28.5006   31.9360 C   0  0  0  0  0  0  0  0  0  0  0  0
   58.4288   28.2448   33.0863 C   0  0  0  0  0  0  0  0  0  0  0  0
   59.4385   29.1280   33.4003 C   0  0  0  0  0  0  0  0  0  0  0  0
   57.1616   29.6327   30.0572 O   0  0  0  0  0  0  0  0  0  0  0  0
   56.5506   28.3100   30.1178 C   0  0  0  0  0  0  0  0  0  0  0  0
   56.6832   27.7701   31.4282 O   0  0  0  0  0  0  0  0  0  0  0  0
  1  6  2  0  0  0
  1  2  1  0  0  0
  2  3  1  0  0  0
  3  4  2  0  0  0
  4  5  1  0  0  0
  5  6  1  0  0  0
  6  7  1  0  0  0
  7  8  2  0  0  0
  7 10  1  0  0  0
  8  9  1  0  0  0
  8 13  1  0  0  0
  5  9  2  0  0  0
 10 11  1  0  0  0
 11 12  1  0  0  0
 12 16  1  0  0  0
 12 13  1  0  0  0
 13 21  1  0  0  0
 14 17  1  0  0  0
 14 19  1  0  0  0
 14 15  1  0  0  0
 15 16  1  0  0  0
 16 18  2  0  0  0
 21 22  2  0  0  0
 21 26  1  0  0  0
 22 23  1  0  0  0
 23 24  2  0  0  0
 24 29  1  0  0  0
 24 25  1  0  0  0
 25 26  2  0  0  0
 23 27  1  0  0  0
 27 28  1  0  0  0
 28 29  1  0  0  0
 11 19  1  0  0  0
 19 20  2  0  0  0
M  END
> <minimizedAffinity>
-5.04166

$$$$
1XOZ


 29 34  0  0  0  0  0  0  0  0999 V2000
   60.0773   36.0827   35.8876 C   0  0  0  0  0  0  0  0  0  0  0  0
   59.3960   37.2552   35.6040 C   0  0  0  0  0  0  0  0  0  0  0  0
   58.5486   37.4475   34.4798 C   0  0  0  0  0  0  0  0  0  0  0  0
   58.3606   36.3933   33.5572 C   0  0  0  0  0  0  0  0  0  0  0  0
   59.0385   35.2187   33.8356 C   0  0  0  0  0  0  0  0  0  0  0  0
   59.8696   35.0529   34.9534 C   0  0  0  0  0  0  0  0  0  0  0  0
   60.3977   33.6826   34.8855 C   0  0  0  0  0  0  0  0  0  0  0  0
   59.8530   33.1533   33.7611 C   0  0  0  0  0  0  0  0  0  0  0  0
   59.0722   34.0303   33.1571 N   0  0  0  0  0  0  0  0  0  0  0  0
   61.3349   32.9630   35.8139 C   0  0  0  0  0  0  0  0  0  0  0  0
   61.1396   31.4445   35.7135 C   0  0  0  0  0  0  0  0  0  0  0  0
   60.7937   30.9453   34.3782 N   0  0  0  0  0  0  0  0  0  0  0  0
   60.1635   31.7662   33.3585 C   0  0  0  0  0  0  0  0  0  0  0  0
   62.2778   29.3372   36.1720 N   0  0  0  0  0  0  0  0  0  0  0  0
   61.6437   28.7570   34.9884 C   0  0  0  0  0  0  0  0  0  0  0  0
   61.0162   29.6612   34.0244 C   0  0  0  0  0  0  0  0  0  0  0  0
   63.1700   28.5321   36.9859 C   0  0  0  0  0  0  0  0  0  0  0  0
   60.7328   29.2008   32.9478 O   0  0  0  0  0  0  0  0  0  0  0  0
   62.0518   30.5925   36.5380 C   0  0  0  0  0  0  0  0  0  0  0  0
   62.5518   31.1422   37.5330 O   0  0  0  0  0  0  0  0  0  0  0  0
   61.0180   31.9310   32.0536 C   0  0  0  0  0  0  0  0  0  0  0  0
   62.3123   32.4237   32.0915 C   0  0  0  0  0  0  0  0  0  0  0  0
   63.0207   32.5460   30.8942 C   0  0  0  0  0  0  0  0  0  0  0  0
   62.4740   32.1984   29.6992 C   0  0  0  0  0  0  0  0  0  0  0  0
   61.1923   31.7061   29.6039 C   0  0  0  0  0  0  0  0  0  0  0  0
   60.4877   31.5795   30.7810 C   0  0  0  0  0  0  0  0  0  0  0  0
   64.3034   33.0131   30.7530 O   0  0  0  0  0  0  0  0  0  0  0  0
   64.5756   32.6252   29.3738 C   0  0  0  0  0  0  0  0  0  0  0  0
   63.3534   32.4079   28.6772 O   0  0  0  0  0  0  0  0  0  0  0  0
  1  6  2  0  0  0
  1  2  1  0  0  0
  2  3  1  0  0  0
  3  4  2  0  0  0
  4  5  1  0  0  0
  5  6  1  0  0  0
  6  7  1  0  0  0
  7  8  2  0  0  0
  7 10  1  0  0  0
  8  9  1  0  0  0
  8 13  1  0  0  0
  5  9  2  0  0  0
 10 11  1  0  0  0
 11 12  1  0  0  0
 12 16  1  0  0  0
 12 13  1  0  0  0
 13 21  1  0  0  0
 14 17  1  0  0  0
 14 19  1  0  0  0
 14 15  1  0  0  0
 15 16  1  0  0  0
 16 18  2  0  0  0
 21 22  2  0  0  0
 21 26  1  0  0  0
 22 23  1  0  0  0
 23 24  2  0  0  0
 24 29  1  0  0  0
 24 25  1  0  0  0
 25 26  2  0  0  0
 23 27  1  0  0  0
 27 28  1  0  0  0
 28 29  1  0  0  0
 11 19  1  0  0  0
 19 20  2  0  0  0
M  END
> <minimizedAffinity>
-4.89423

$$$$
