1XOZ


 29 34  0  0  0  0  0  0  0  0999 V2000
   17.1088   54.3083   29.1114 C   0  0  0  0  0  0  0  0  0  0  0  0
   16.3377   53.2696   28.6157 C   0  0  0  0  0  0  0  0  0  0  0  0
   15.1381   52.7958   29.2119 C   0  0  0  0  0  0  0  0  0  0  0  0
   14.6619   53.3976   30.3989 C   0  0  0  0  0  0  0  0  0  0  0  0
   15.4281   54.4367   30.8988 C   0  0  0  0  0  0  0  0  0  0  0  0
   16.6094   54.8873   30.2912 C   0  0  0  0  0  0  0  0  0  0  0  0
   17.1171   55.9879   31.1229 C   0  0  0  0  0  0  0  0  0  0  0  0
   16.2206   56.1037   32.1349 C   0  0  0  0  0  0  0  0  0  0  0  0
   15.2502   55.2171   32.0093 N   0  0  0  0  0  0  0  0  0  0  0  0
   18.3453   56.8371   30.9542 C   0  0  0  0  0  0  0  0  0  0  0  0
   18.1708   58.1905   31.6557 C   0  0  0  0  0  0  0  0  0  0  0  0
   17.3832   58.1568   32.8928 N   0  0  0  0  0  0  0  0  0  0  0  0
   16.4057   57.1232   33.1879 C   0  0  0  0  0  0  0  0  0  0  0  0
   19.4578   60.0524   32.5629 N   0  0  0  0  0  0  0  0  0  0  0  0
   18.4581   60.2061   33.6197 C   0  0  0  0  0  0  0  0  0  0  0  0
   17.5007   59.1203   33.8316 C   0  0  0  0  0  0  0  0  0  0  0  0
   20.6055   60.9397   32.5146 C   0  0  0  0  0  0  0  0  0  0  0  0
   16.8632   59.1458   34.8536 O   0  0  0  0  0  0  0  0  0  0  0  0
   19.3422   59.1204   31.6256 C   0  0  0  0  0  0  0  0  0  0  0  0
   20.1500   58.9418   30.6994 O   0  0  0  0  0  0  0  0  0  0  0  0
   16.7299   56.2868   34.4746 C   0  0  0  0  0  0  0  0  0  0  0  0
   18.0258   55.9099   34.7873 C   0  0  0  0  0  0  0  0  0  0  0  0
   18.2482   55.1657   35.9479 C   0  0  0  0  0  0  0  0  0  0  0  0
   17.2304   54.8016   36.7721 C   0  0  0  0  0  0  0  0  0  0  0  0
   15.9247   55.1473   36.5080 C   0  0  0  0  0  0  0  0  0  0  0  0
   15.6971   55.8841   35.3664 C   0  0  0  0  0  0  0  0  0  0  0  0
   19.4613   54.7129   36.4029 O   0  0  0  0  0  0  0  0  0  0  0  0
   19.0977   54.2929   37.7512 C   0  0  0  0  0  0  0  0  0  0  0  0
   17.6925   54.0816   37.8349 O   0  0  0  0  0  0  0  0  0  0  0  0
  1  6  2  0  0  0
  1  2  1  0  0  0
  2  3  1  0  0  0
  3  4  2  0  0  0
  4  5  1  0  0  0
  5  6  1  0  0  0
  6  7  1  0  0  0
  7  8  2  0  0  0
  7 10  1  0  0  0
  8  9  1  0  0  0
  8 13  1  0  0  0
  5  9  2  0  0  0
 10 11  1  0  0  0
 11 12  1  0  0  0
 12 16  1  0  0  0
 12 13  1  0  0  0
 13 21  1  0  0  0
 14 17  1  0  0  0
 14 19  1  0  0  0
 14 15  1  0  0  0
 15 16  1  0  0  0
 16 18  2  0  0  0
 21 22  2  0  0  0
 21 26  1  0  0  0
 22 23  1  0  0  0
 23 24  2  0  0  0
 24 29  1  0  0  0
 24 25  1  0  0  0
 25 26  2  0  0  0
 23 27  1  0  0  0
 27 28  1  0  0  0
 28 29  1  0  0  0
 11 19  1  0  0  0
 19 20  2  0  0  0
M  END
> <minimizedAffinity>
-5.55693

$$$$
1XOZ


 29 34  0  0  0  0  0  0  0  0999 V2000
   24.6920   55.2372   35.4647 C   0  0  0  0  0  0  0  0  0  0  0  0
   23.7163   54.3731   34.9950 C   0  0  0  0  0  0  0  0  0  0  0  0
   22.6178   53.8987   35.7614 C   0  0  0  0  0  0  0  0  0  0  0  0
   22.4728   54.3112   37.1055 C   0  0  0  0  0  0  0  0  0  0  0  0
   23.4447   55.1753   37.5805 C   0  0  0  0  0  0  0  0  0  0  0  0
   24.5202   55.6304   36.8035 C   0  0  0  0  0  0  0  0  0  0  0  0
   25.3170   56.5156   37.6652 C   0  0  0  0  0  0  0  0  0  0  0  0
   24.6694   56.5183   38.8576 C   0  0  0  0  0  0  0  0  0  0  0  0
   23.5949   55.7522   38.8128 N   0  0  0  0  0  0  0  0  0  0  0  0
   26.5766   57.2775   37.3634 C   0  0  0  0  0  0  0  0  0  0  0  0
   26.7142   58.4900   38.2935 C   0  0  0  0  0  0  0  0  0  0  0  0
   26.2010   58.2962   39.6540 N   0  0  0  0  0  0  0  0  0  0  0  0
   25.1890   57.3101   39.9916 C   0  0  0  0  0  0  0  0  0  0  0  0
   28.3746   60.0433   39.1748 N   0  0  0  0  0  0  0  0  0  0  0  0
   27.6407   60.0834   40.4395 C   0  0  0  0  0  0  0  0  0  0  0  0
   26.6246   59.0595   40.6842 C   0  0  0  0  0  0  0  0  0  0  0  0
   29.5854   60.8272   39.0129 C   0  0  0  0  0  0  0  0  0  0  0  0
   26.2197   58.9506   41.8138 O   0  0  0  0  0  0  0  0  0  0  0  0
   27.9569   59.3104   38.1505 C   0  0  0  0  0  0  0  0  0  0  0  0
   28.5285   59.2379   37.0504 O   0  0  0  0  0  0  0  0  0  0  0  0
   25.6693   56.2294   41.0218 C   0  0  0  0  0  0  0  0  0  0  0  0
   26.8320   55.5030   40.8220 C   0  0  0  0  0  0  0  0  0  0  0  0
   27.2053   54.5551   41.7773 C   0  0  0  0  0  0  0  0  0  0  0  0
   26.4591   54.3269   42.8904 C   0  0  0  0  0  0  0  0  0  0  0  0
   25.2949   55.0182   43.1372 C   0  0  0  0  0  0  0  0  0  0  0  0
   24.9212   55.9573   42.2010 C   0  0  0  0  0  0  0  0  0  0  0  0
   28.3189   53.7541   41.7353 O   0  0  0  0  0  0  0  0  0  0  0  0
   28.3192   53.2304   43.0964 C   0  0  0  0  0  0  0  0  0  0  0  0
   27.0226   53.3588   43.6695 O   0  0  0  0  0  0  0  0  0  0  0  0
  1  6  2  0  0  0
  1  2  1  0  0  0
  2  3  1  0  0  0
  3  4  2  0  0  0
  4  5  1  0  0  0
  5  6  1  0  0  0
  6  7  1  0  0  0
  7  8  2  0  0  0
  7 10  1  0  0  0
  8  9  1  0  0  0
  8 13  1  0  0  0
  5  9  2  0  0  0
 10 11  1  0  0  0
 11 12  1  0  0  0
 12 16  1  0  0  0
 12 13  1  0  0  0
 13 21  1  0  0  0
 14 17  1  0  0  0
 14 19  1  0  0  0
 14 15  1  0  0  0
 15 16  1  0  0  0
 16 18  2  0  0  0
 21 22  2  0  0  0
 21 26  1  0  0  0
 22 23  1  0  0  0
 23 24  2  0  0  0
 24 29  1  0  0  0
 24 25  1  0  0  0
 25 26  2  0  0  0
 23 27  1  0  0  0
 27 28  1  0  0  0
 28 29  1  0  0  0
 11 19  1  0  0  0
 19 20  2  0  0  0
M  END
> <minimizedAffinity>
-4.93085

$$$$
1XOZ


 29 34  0  0  0  0  0  0  0  0999 V2000
   22.9388   53.9308   35.8170 C   0  0  0  0  0  0  0  0  0  0  0  0
   24.0186   54.6387   35.3149 C   0  0  0  0  0  0  0  0  0  0  0  0
   24.6620   55.7153   35.9826 C   0  0  0  0  0  0  0  0  0  0  0  0
   24.1978   56.1283   37.2522 C   0  0  0  0  0  0  0  0  0  0  0  0
   23.1191   55.4241   37.7595 C   0  0  0  0  0  0  0  0  0  0  0  0
   22.5010   54.3635   37.0809 C   0  0  0  0  0  0  0  0  0  0  0  0
   21.4079   53.8922   37.9434 C   0  0  0  0  0  0  0  0  0  0  0  0
   21.4599   54.6889   39.0406 C   0  0  0  0  0  0  0  0  0  0  0  0
   22.4404   55.5676   38.9396 N   0  0  0  0  0  0  0  0  0  0  0  0
   20.4152   52.7855   37.7246 C   0  0  0  0  0  0  0  0  0  0  0  0
   19.8838   52.2594   39.0643 C   0  0  0  0  0  0  0  0  0  0  0  0
   19.7403   53.2680   40.1199 N   0  0  0  0  0  0  0  0  0  0  0  0
   20.4945   54.5095   40.1444 C   0  0  0  0  0  0  0  0  0  0  0  0
   18.0103   51.0308   40.0270 N   0  0  0  0  0  0  0  0  0  0  0  0
   18.1079   51.8581   41.2294 C   0  0  0  0  0  0  0  0  0  0  0  0
   18.9067   53.0823   41.1658 C   0  0  0  0  0  0  0  0  0  0  0  0
   16.9994   49.9929   39.9400 C   0  0  0  0  0  0  0  0  0  0  0  0
   18.7687   53.8720   42.0652 O   0  0  0  0  0  0  0  0  0  0  0  0
   18.8360   51.1936   39.0012 C   0  0  0  0  0  0  0  0  0  0  0  0
   18.8109   50.5220   37.9569 O   0  0  0  0  0  0  0  0  0  0  0  0
   19.6035   55.7989   40.0839 C   0  0  0  0  0  0  0  0  0  0  0  0
   18.5632   55.9199   39.1770 C   0  0  0  0  0  0  0  0  0  0  0  0
   17.8068   57.0938   39.1739 C   0  0  0  0  0  0  0  0  0  0  0  0
   18.0661   58.1158   40.0318 C   0  0  0  0  0  0  0  0  0  0  0  0
   19.0882   58.0493   40.9511 C   0  0  0  0  0  0  0  0  0  0  0  0
   19.8374   56.8932   40.9625 C   0  0  0  0  0  0  0  0  0  0  0  0
   16.7485   57.3764   38.3471 O   0  0  0  0  0  0  0  0  0  0  0  0
   16.2078   58.5602   39.0052 C   0  0  0  0  0  0  0  0  0  0  0  0
   17.1988   59.1513   39.8386 O   0  0  0  0  0  0  0  0  0  0  0  0
  1  6  2  0  0  0
  1  2  1  0  0  0
  2  3  1  0  0  0
  3  4  2  0  0  0
  4  5  1  0  0  0
  5  6  1  0  0  0
  6  7  1  0  0  0
  7  8  2  0  0  0
  7 10  1  0  0  0
  8  9  1  0  0  0
  8 13  1  0  0  0
  5  9  2  0  0  0
 10 11  1  0  0  0
 11 12  1  0  0  0
 12 16  1  0  0  0
 12 13  1  0  0  0
 13 21  1  0  0  0
 14 17  1  0  0  0
 14 19  1  0  0  0
 14 15  1  0  0  0
 15 16  1  0  0  0
 16 18  2  0  0  0
 21 22  2  0  0  0
 21 26  1  0  0  0
 22 23  1  0  0  0
 23 24  2  0  0  0
 24 29  1  0  0  0
 24 25  1  0  0  0
 25 26  2  0  0  0
 23 27  1  0  0  0
 27 28  1  0  0  0
 28 29  1  0  0  0
 11 19  1  0  0  0
 19 20  2  0  0  0
M  END
> <minimizedAffinity>
-4.86937

$$$$
1XOZ


 29 34  0  0  0  0  0  0  0  0999 V2000
   18.6158   55.4091   34.4473 C   0  0  0  0  0  0  0  0  0  0  0  0
   17.6932   55.7933   33.4879 C   0  0  0  0  0  0  0  0  0  0  0  0
   16.2830   55.7348   33.6514 C   0  0  0  0  0  0  0  0  0  0  0  0
   15.7389   55.2540   34.8642 C   0  0  0  0  0  0  0  0  0  0  0  0
   16.6561   54.8689   35.8271 C   0  0  0  0  0  0  0  0  0  0  0  0
   18.0449   54.9369   35.6421 C   0  0  0  0  0  0  0  0  0  0  0  0
   18.6593   54.4393   36.8814 C   0  0  0  0  0  0  0  0  0  0  0  0
   17.6144   54.1225   37.6870 C   0  0  0  0  0  0  0  0  0  0  0  0
   16.4643   54.3686   37.0868 N   0  0  0  0  0  0  0  0  0  0  0  0
   20.1093   54.2854   37.2449 C   0  0  0  0  0  0  0  0  0  0  0  0
   20.2942   54.3183   38.7677 C   0  0  0  0  0  0  0  0  0  0  0  0
   19.2049   53.7152   39.5432 N   0  0  0  0  0  0  0  0  0  0  0  0
   17.8488   53.5782   39.0403 C   0  0  0  0  0  0  0  0  0  0  0  0
   21.8611   53.6615   40.5168 N   0  0  0  0  0  0  0  0  0  0  0  0
   20.7298   53.3739   41.3984 C   0  0  0  0  0  0  0  0  0  0  0  0
   19.3963   53.2734   40.8049 C   0  0  0  0  0  0  0  0  0  0  0  0
   23.2190   53.4661   40.9909 C   0  0  0  0  0  0  0  0  0  0  0  0
   18.5298   52.7884   41.4871 O   0  0  0  0  0  0  0  0  0  0  0  0
   21.6839   54.1128   39.2817 C   0  0  0  0  0  0  0  0  0  0  0  0
   22.5992   54.3821   38.4867 O   0  0  0  0  0  0  0  0  0  0  0  0
   17.3501   52.0942   38.9451 C   0  0  0  0  0  0  0  0  0  0  0  0
   16.0790   51.7283   39.3570 C   0  0  0  0  0  0  0  0  0  0  0  0
   15.6952   50.3901   39.2459 C   0  0  0  0  0  0  0  0  0  0  0  0
   16.5339   49.4427   38.7491 C   0  0  0  0  0  0  0  0  0  0  0  0
   17.8074   49.7507   38.3277 C   0  0  0  0  0  0  0  0  0  0  0  0
   18.1927   51.0694   38.4313 C   0  0  0  0  0  0  0  0  0  0  0  0
   14.4812   49.8604   39.6052 O   0  0  0  0  0  0  0  0  0  0  0  0
   14.5755   48.5418   38.9894 C   0  0  0  0  0  0  0  0  0  0  0  0
   15.9385   48.2151   38.7409 O   0  0  0  0  0  0  0  0  0  0  0  0
  1  6  2  0  0  0
  1  2  1  0  0  0
  2  3  1  0  0  0
  3  4  2  0  0  0
  4  5  1  0  0  0
  5  6  1  0  0  0
  6  7  1  0  0  0
  7  8  2  0  0  0
  7 10  1  0  0  0
  8  9  1  0  0  0
  8 13  1  0  0  0
  5  9  2  0  0  0
 10 11  1  0  0  0
 11 12  1  0  0  0
 12 16  1  0  0  0
 12 13  1  0  0  0
 13 21  1  0  0  0
 14 17  1  0  0  0
 14 19  1  0  0  0
 14 15  1  0  0  0
 15 16  1  0  0  0
 16 18  2  0  0  0
 21 22  2  0  0  0
 21 26  1  0  0  0
 22 23  1  0  0  0
 23 24  2  0  0  0
 24 29  1  0  0  0
 24 25  1  0  0  0
 25 26  2  0  0  0
 23 27  1  0  0  0
 27 28  1  0  0  0
 28 29  1  0  0  0
 11 19  1  0  0  0
 19 20  2  0  0  0
M  END
> <minimizedAffinity>
-4.73696

$$$$
1XOZ


 29 34  0  0  0  0  0  0  0  0999 V2000
   24.8318   60.2326   35.4826 C   0  0  0  0  0  0  0  0  0  0  0  0
   25.3354   61.0742   34.5041 C   0  0  0  0  0  0  0  0  0  0  0  0
   26.7158   61.3393   34.2964 C   0  0  0  0  0  0  0  0  0  0  0  0
   27.6791   60.7227   35.1268 C   0  0  0  0  0  0  0  0  0  0  0  0
   27.1818   59.8800   36.1063 C   0  0  0  0  0  0  0  0  0  0  0  0
   25.8134   59.6335   36.2912 C   0  0  0  0  0  0  0  0  0  0  0  0
   25.7031   58.6987   37.4204 C   0  0  0  0  0  0  0  0  0  0  0  0
   26.9824   58.4675   37.8092 C   0  0  0  0  0  0  0  0  0  0  0  0
   27.8332   59.1418   37.0575 N   0  0  0  0  0  0  0  0  0  0  0  0
   24.4832   58.0948   38.0570 C   0  0  0  0  0  0  0  0  0  0  0  0
   24.8321   56.7736   38.7548 C   0  0  0  0  0  0  0  0  0  0  0  0
   26.1644   56.7222   39.3666 N   0  0  0  0  0  0  0  0  0  0  0  0
   27.2706   57.5621   38.9404 C   0  0  0  0  0  0  0  0  0  0  0  0
   24.0182   55.2477   40.4739 N   0  0  0  0  0  0  0  0  0  0  0  0
   25.4023   54.9619   40.8513 C   0  0  0  0  0  0  0  0  0  0  0  0
   26.4533   55.8523   40.3583 C   0  0  0  0  0  0  0  0  0  0  0  0
   22.9257   54.5975   41.1742 C   0  0  0  0  0  0  0  0  0  0  0  0
   27.5360   55.7601   40.8787 O   0  0  0  0  0  0  0  0  0  0  0  0
   23.7243   56.0872   39.4893 C   0  0  0  0  0  0  0  0  0  0  0  0
   22.5736   56.3675   39.1158 O   0  0  0  0  0  0  0  0  0  0  0  0
   27.8173   58.5145   40.0603 C   0  0  0  0  0  0  0  0  0  0  0  0
   26.9695   59.3111   40.8126 C   0  0  0  0  0  0  0  0  0  0  0  0
   27.5190   60.1374   41.7953 C   0  0  0  0  0  0  0  0  0  0  0  0
   28.8574   60.1813   42.0287 C   0  0  0  0  0  0  0  0  0  0  0  0
   29.7444   59.4130   41.3096 C   0  0  0  0  0  0  0  0  0  0  0  0
   29.2100   58.5928   40.3402 C   0  0  0  0  0  0  0  0  0  0  0  0
   26.8274   60.9846   42.6245 O   0  0  0  0  0  0  0  0  0  0  0  0
   27.8693   61.3201   43.5880 C   0  0  0  0  0  0  0  0  0  0  0  0
   29.1528   61.0595   43.0303 O   0  0  0  0  0  0  0  0  0  0  0  0
  1  6  2  0  0  0
  1  2  1  0  0  0
  2  3  1  0  0  0
  3  4  2  0  0  0
  4  5  1  0  0  0
  5  6  1  0  0  0
  6  7  1  0  0  0
  7  8  2  0  0  0
  7 10  1  0  0  0
  8  9  1  0  0  0
  8 13  1  0  0  0
  5  9  2  0  0  0
 10 11  1  0  0  0
 11 12  1  0  0  0
 12 16  1  0  0  0
 12 13  1  0  0  0
 13 21  1  0  0  0
 14 17  1  0  0  0
 14 19  1  0  0  0
 14 15  1  0  0  0
 15 16  1  0  0  0
 16 18  2  0  0  0
 21 22  2  0  0  0
 21 26  1  0  0  0
 22 23  1  0  0  0
 23 24  2  0  0  0
 24 29  1  0  0  0
 24 25  1  0  0  0
 25 26  2  0  0  0
 23 27  1  0  0  0
 27 28  1  0  0  0
 28 29  1  0  0  0
 11 19  1  0  0  0
 19 20  2  0  0  0
M  END
> <minimizedAffinity>
-4.67049

$$$$
