1XOZ


 29 34  0  0  0  0  0  0  0  0999 V2000
   39.5049   19.7856   28.4565 C   0  0  0  0  0  0  0  0  0  0  0  0
   39.4125   20.6688   29.5198 C   0  0  0  0  0  0  0  0  0  0  0  0
   38.8702   20.3486   30.7935 C   0  0  0  0  0  0  0  0  0  0  0  0
   38.3757   19.0468   31.0358 C   0  0  0  0  0  0  0  0  0  0  0  0
   38.4659   18.1595   29.9770 C   0  0  0  0  0  0  0  0  0  0  0  0
   39.0066   18.4994   28.7281 C   0  0  0  0  0  0  0  0  0  0  0  0
   38.9170   17.2957   27.8890 C   0  0  0  0  0  0  0  0  0  0  0  0
   38.3448   16.3570   28.6842 C   0  0  0  0  0  0  0  0  0  0  0  0
   38.0858   16.8477   29.8824 N   0  0  0  0  0  0  0  0  0  0  0  0
   39.3406   17.0800   26.4635 C   0  0  0  0  0  0  0  0  0  0  0  0
   39.6213   15.5949   26.1989 C   0  0  0  0  0  0  0  0  0  0  0  0
   38.7645   14.6562   26.9314 N   0  0  0  0  0  0  0  0  0  0  0  0
   38.0888   14.9950   28.1721 C   0  0  0  0  0  0  0  0  0  0  0  0
   39.7889   13.9760   24.3830 N   0  0  0  0  0  0  0  0  0  0  0  0
   39.2217   12.9551   25.2638 C   0  0  0  0  0  0  0  0  0  0  0  0
   38.5769   13.3893   26.5033 C   0  0  0  0  0  0  0  0  0  0  0  0
   40.1543   13.6371   23.0199 C   0  0  0  0  0  0  0  0  0  0  0  0
   37.8985   12.5775   27.0797 O   0  0  0  0  0  0  0  0  0  0  0  0
   39.9936   15.2191   24.7996 C   0  0  0  0  0  0  0  0  0  0  0  0
   40.4765   16.1291   24.1062 O   0  0  0  0  0  0  0  0  0  0  0  0
   36.5249   14.9063   28.0921 C   0  0  0  0  0  0  0  0  0  0  0  0
   35.7766   14.3499   29.1166 C   0  0  0  0  0  0  0  0  0  0  0  0
   34.3871   14.3009   28.9845 C   0  0  0  0  0  0  0  0  0  0  0  0
   33.7547   14.7803   27.8809 C   0  0  0  0  0  0  0  0  0  0  0  0
   34.4492   15.3409   26.8334 C   0  0  0  0  0  0  0  0  0  0  0  0
   35.8202   15.3957   26.9571 C   0  0  0  0  0  0  0  0  0  0  0  0
   33.5016   13.7865   29.8982 O   0  0  0  0  0  0  0  0  0  0  0  0
   32.2428   14.2827   29.3544 C   0  0  0  0  0  0  0  0  0  0  0  0
   32.4033   14.6206   27.9810 O   0  0  0  0  0  0  0  0  0  0  0  0
  1  6  2  0  0  0
  1  2  1  0  0  0
  2  3  1  0  0  0
  3  4  2  0  0  0
  4  5  1  0  0  0
  5  6  1  0  0  0
  6  7  1  0  0  0
  7  8  2  0  0  0
  7 10  1  0  0  0
  8  9  1  0  0  0
  8 13  1  0  0  0
  5  9  2  0  0  0
 10 11  1  0  0  0
 11 12  1  0  0  0
 12 16  1  0  0  0
 12 13  1  0  0  0
 13 21  1  0  0  0
 14 17  1  0  0  0
 14 19  1  0  0  0
 14 15  1  0  0  0
 15 16  1  0  0  0
 16 18  2  0  0  0
 21 22  2  0  0  0
 21 26  1  0  0  0
 22 23  1  0  0  0
 23 24  2  0  0  0
 24 29  1  0  0  0
 24 25  1  0  0  0
 25 26  2  0  0  0
 23 27  1  0  0  0
 27 28  1  0  0  0
 28 29  1  0  0  0
 11 19  1  0  0  0
 19 20  2  0  0  0
M  END
> <minimizedAffinity>
-5.59904

$$$$
1XOZ


 29 34  0  0  0  0  0  0  0  0999 V2000
   34.0650   14.8849   26.8255 C   0  0  0  0  0  0  0  0  0  0  0  0
   32.9265   14.9529   27.6119 C   0  0  0  0  0  0  0  0  0  0  0  0
   32.9009   15.3917   28.9631 C   0  0  0  0  0  0  0  0  0  0  0  0
   34.1016   15.7950   29.5904 C   0  0  0  0  0  0  0  0  0  0  0  0
   35.2428   15.7297   28.8092 C   0  0  0  0  0  0  0  0  0  0  0  0
   35.2424   15.2933   27.4761 C   0  0  0  0  0  0  0  0  0  0  0  0
   36.6341   15.3683   27.0084 C   0  0  0  0  0  0  0  0  0  0  0  0
   37.3361   15.8322   28.0729 C   0  0  0  0  0  0  0  0  0  0  0  0
   36.5420   16.0419   29.1068 N   0  0  0  0  0  0  0  0  0  0  0  0
   37.2214   15.0236   25.6689 C   0  0  0  0  0  0  0  0  0  0  0  0
   38.5265   15.7950   25.4330 C   0  0  0  0  0  0  0  0  0  0  0  0
   39.3419   16.0258   26.6304 N   0  0  0  0  0  0  0  0  0  0  0  0
   38.7961   16.0372   27.9768 C   0  0  0  0  0  0  0  0  0  0  0  0
   40.5641   15.7387   24.0947 N   0  0  0  0  0  0  0  0  0  0  0  0
   41.3042   16.2904   25.2295 C   0  0  0  0  0  0  0  0  0  0  0  0
   40.6659   16.2773   26.5459 C   0  0  0  0  0  0  0  0  0  0  0  0
   41.2539   15.4448   22.8519 C   0  0  0  0  0  0  0  0  0  0  0  0
   41.3727   16.4909   27.4979 O   0  0  0  0  0  0  0  0  0  0  0  0
   39.2598   15.5047   24.1618 C   0  0  0  0  0  0  0  0  0  0  0  0
   38.5729   15.0450   23.2349 O   0  0  0  0  0  0  0  0  0  0  0  0
   39.3976   14.9368   28.9188 C   0  0  0  0  0  0  0  0  0  0  0  0
   39.4724   13.6096   28.5284 C   0  0  0  0  0  0  0  0  0  0  0  0
   40.0194   12.6781   29.4136 C   0  0  0  0  0  0  0  0  0  0  0  0
   40.4749   13.0386   30.6425 C   0  0  0  0  0  0  0  0  0  0  0  0
   40.4226   14.3419   31.0815 C   0  0  0  0  0  0  0  0  0  0  0  0
   39.8871   15.2677   30.2130 C   0  0  0  0  0  0  0  0  0  0  0  0
   40.1674   11.3325   29.1880 O   0  0  0  0  0  0  0  0  0  0  0  0
   41.0391   10.9724   30.3003 C   0  0  0  0  0  0  0  0  0  0  0  0
   40.9596   11.9597   31.3226 O   0  0  0  0  0  0  0  0  0  0  0  0
  1  6  2  0  0  0
  1  2  1  0  0  0
  2  3  1  0  0  0
  3  4  2  0  0  0
  4  5  1  0  0  0
  5  6  1  0  0  0
  6  7  1  0  0  0
  7  8  2  0  0  0
  7 10  1  0  0  0
  8  9  1  0  0  0
  8 13  1  0  0  0
  5  9  2  0  0  0
 10 11  1  0  0  0
 11 12  1  0  0  0
 12 16  1  0  0  0
 12 13  1  0  0  0
 13 21  1  0  0  0
 14 17  1  0  0  0
 14 19  1  0  0  0
 14 15  1  0  0  0
 15 16  1  0  0  0
 16 18  2  0  0  0
 21 22  2  0  0  0
 21 26  1  0  0  0
 22 23  1  0  0  0
 23 24  2  0  0  0
 24 29  1  0  0  0
 24 25  1  0  0  0
 25 26  2  0  0  0
 23 27  1  0  0  0
 27 28  1  0  0  0
 28 29  1  0  0  0
 11 19  1  0  0  0
 19 20  2  0  0  0
M  END
> <minimizedAffinity>
-5.29550

$$$$
1XOZ


 29 34  0  0  0  0  0  0  0  0999 V2000
   41.3755   16.5953   23.6207 C   0  0  0  0  0  0  0  0  0  0  0  0
   41.6038   16.3311   22.2801 C   0  0  0  0  0  0  0  0  0  0  0  0
   40.7148   15.6161   21.4330 C   0  0  0  0  0  0  0  0  0  0  0  0
   39.4993   15.1187   21.9554 C   0  0  0  0  0  0  0  0  0  0  0  0
   39.2653   15.3801   23.2947 C   0  0  0  0  0  0  0  0  0  0  0  0
   40.1588   16.0894   24.1108 C   0  0  0  0  0  0  0  0  0  0  0  0
   39.5516   16.1476   25.4483 C   0  0  0  0  0  0  0  0  0  0  0  0
   38.3736   15.4854   25.3266 C   0  0  0  0  0  0  0  0  0  0  0  0
   38.2051   15.0449   24.0932 N   0  0  0  0  0  0  0  0  0  0  0  0
   40.0625   16.7783   26.7130 C   0  0  0  0  0  0  0  0  0  0  0  0
   38.9018   17.1250   27.6546 C   0  0  0  0  0  0  0  0  0  0  0  0
   37.7715   16.1904   27.6247 N   0  0  0  0  0  0  0  0  0  0  0  0
   37.4741   15.3347   26.4889 C   0  0  0  0  0  0  0  0  0  0  0  0
   38.4162   17.5880   29.9990 N   0  0  0  0  0  0  0  0  0  0  0  0
   37.1239   16.9200   29.8455 C   0  0  0  0  0  0  0  0  0  0  0  0
   36.9076   16.0932   28.6580 C   0  0  0  0  0  0  0  0  0  0  0  0
   38.7928   18.1546   31.2811 C   0  0  0  0  0  0  0  0  0  0  0  0
   35.9555   15.3550   28.6723 O   0  0  0  0  0  0  0  0  0  0  0  0
   39.2644   17.7044   28.9852 C   0  0  0  0  0  0  0  0  0  0  0  0
   40.3713   18.2641   29.0472 O   0  0  0  0  0  0  0  0  0  0  0  0
   37.5263   13.8012   26.8141 C   0  0  0  0  0  0  0  0  0  0  0  0
   36.4969   12.9475   26.4521 C   0  0  0  0  0  0  0  0  0  0  0  0
   36.6040   11.5920   26.7705 C   0  0  0  0  0  0  0  0  0  0  0  0
   37.6855   11.0927   27.4254 C   0  0  0  0  0  0  0  0  0  0  0  0
   38.7348   11.8960   27.8099 C   0  0  0  0  0  0  0  0  0  0  0  0
   38.6383   13.2342   27.4969 C   0  0  0  0  0  0  0  0  0  0  0  0
   35.6819   10.6156   26.4880 O   0  0  0  0  0  0  0  0  0  0  0  0
   36.4652    9.4203   26.7785 C   0  0  0  0  0  0  0  0  0  0  0  0
   37.5618    9.7486   27.6247 O   0  0  0  0  0  0  0  0  0  0  0  0
  1  6  2  0  0  0
  1  2  1  0  0  0
  2  3  1  0  0  0
  3  4  2  0  0  0
  4  5  1  0  0  0
  5  6  1  0  0  0
  6  7  1  0  0  0
  7  8  2  0  0  0
  7 10  1  0  0  0
  8  9  1  0  0  0
  8 13  1  0  0  0
  5  9  2  0  0  0
 10 11  1  0  0  0
 11 12  1  0  0  0
 12 16  1  0  0  0
 12 13  1  0  0  0
 13 21  1  0  0  0
 14 17  1  0  0  0
 14 19  1  0  0  0
 14 15  1  0  0  0
 15 16  1  0  0  0
 16 18  2  0  0  0
 21 22  2  0  0  0
 21 26  1  0  0  0
 22 23  1  0  0  0
 23 24  2  0  0  0
 24 29  1  0  0  0
 24 25  1  0  0  0
 25 26  2  0  0  0
 23 27  1  0  0  0
 27 28  1  0  0  0
 28 29  1  0  0  0
 11 19  1  0  0  0
 19 20  2  0  0  0
M  END
> <minimizedAffinity>
-5.22484

$$$$
1XOZ


 29 34  0  0  0  0  0  0  0  0999 V2000
   34.5481   12.5841   27.1150 C   0  0  0  0  0  0  0  0  0  0  0  0
   33.2694   13.0473   27.3785 C   0  0  0  0  0  0  0  0  0  0  0  0
   32.8709   14.4093   27.3069 C   0  0  0  0  0  0  0  0  0  0  0  0
   33.8162   15.3966   26.9469 C   0  0  0  0  0  0  0  0  0  0  0  0
   35.0958   14.9396   26.6818 C   0  0  0  0  0  0  0  0  0  0  0  0
   35.4649   13.5885   26.7586 C   0  0  0  0  0  0  0  0  0  0  0  0
   36.8918   13.5217   26.4113 C   0  0  0  0  0  0  0  0  0  0  0  0
   37.2512   14.8060   26.1609 C   0  0  0  0  0  0  0  0  0  0  0  0
   36.2241   15.6217   26.3135 N   0  0  0  0  0  0  0  0  0  0  0  0
   37.8110   12.3355   26.3330 C   0  0  0  0  0  0  0  0  0  0  0  0
   38.9846   12.6191   25.3862 C   0  0  0  0  0  0  0  0  0  0  0  0
   39.4632   14.0058   25.3811 N   0  0  0  0  0  0  0  0  0  0  0  0
   38.6392   15.1351   25.7766 C   0  0  0  0  0  0  0  0  0  0  0  0
   41.2468   11.8696   24.8695 N   0  0  0  0  0  0  0  0  0  0  0  0
   41.6121   13.2492   24.5486 C   0  0  0  0  0  0  0  0  0  0  0  0
   40.7102   14.3213   24.9703 C   0  0  0  0  0  0  0  0  0  0  0  0
   42.2343   10.8120   24.7558 C   0  0  0  0  0  0  0  0  0  0  0  0
   41.1417   15.4455   24.9308 O   0  0  0  0  0  0  0  0  0  0  0  0
   40.0195   11.5467   25.2569 C   0  0  0  0  0  0  0  0  0  0  0  0
   39.6436   10.3967   25.5369 O   0  0  0  0  0  0  0  0  0  0  0  0
   39.1962   15.9315   27.0078 C   0  0  0  0  0  0  0  0  0  0  0  0
   39.2876   17.3138   26.9964 C   0  0  0  0  0  0  0  0  0  0  0  0
   39.7922   17.9637   28.1248 C   0  0  0  0  0  0  0  0  0  0  0  0
   40.1961   17.2776   29.2265 C   0  0  0  0  0  0  0  0  0  0  0  0
   40.1292   15.9045   29.2905 C   0  0  0  0  0  0  0  0  0  0  0  0
   39.6298   15.2558   28.1824 C   0  0  0  0  0  0  0  0  0  0  0  0
   39.9500   19.3182   28.2798 O   0  0  0  0  0  0  0  0  0  0  0  0
   40.2125   19.3914   29.7124 C   0  0  0  0  0  0  0  0  0  0  0  0
   40.6505   18.1255   30.1941 O   0  0  0  0  0  0  0  0  0  0  0  0
  1  6  2  0  0  0
  1  2  1  0  0  0
  2  3  1  0  0  0
  3  4  2  0  0  0
  4  5  1  0  0  0
  5  6  1  0  0  0
  6  7  1  0  0  0
  7  8  2  0  0  0
  7 10  1  0  0  0
  8  9  1  0  0  0
  8 13  1  0  0  0
  5  9  2  0  0  0
 10 11  1  0  0  0
 11 12  1  0  0  0
 12 16  1  0  0  0
 12 13  1  0  0  0
 13 21  1  0  0  0
 14 17  1  0  0  0
 14 19  1  0  0  0
 14 15  1  0  0  0
 15 16  1  0  0  0
 16 18  2  0  0  0
 21 22  2  0  0  0
 21 26  1  0  0  0
 22 23  1  0  0  0
 23 24  2  0  0  0
 24 29  1  0  0  0
 24 25  1  0  0  0
 25 26  2  0  0  0
 23 27  1  0  0  0
 27 28  1  0  0  0
 28 29  1  0  0  0
 11 19  1  0  0  0
 19 20  2  0  0  0
M  END
> <minimizedAffinity>
-4.92911

$$$$
1XOZ


 29 34  0  0  0  0  0  0  0  0999 V2000
   34.4259   15.4339   26.6374 C   0  0  0  0  0  0  0  0  0  0  0  0
   33.1654   14.8892   26.8211 C   0  0  0  0  0  0  0  0  0  0  0  0
   32.9124   13.5892   27.3359 C   0  0  0  0  0  0  0  0  0  0  0  0
   33.9961   12.7570   27.6972 C   0  0  0  0  0  0  0  0  0  0  0  0
   35.2584   13.2961   27.5164 C   0  0  0  0  0  0  0  0  0  0  0  0
   35.4827   14.5835   27.0067 C   0  0  0  0  0  0  0  0  0  0  0  0
   36.9401   14.7724   26.9674 C   0  0  0  0  0  0  0  0  0  0  0  0
   37.4561   13.6120   27.4452 C   0  0  0  0  0  0  0  0  0  0  0  0
   36.4953   12.7635   27.7623 N   0  0  0  0  0  0  0  0  0  0  0  0
   37.7474   15.9551   26.5117 C   0  0  0  0  0  0  0  0  0  0  0  0
   39.1261   15.9637   27.1848 C   0  0  0  0  0  0  0  0  0  0  0  0
   39.7105   14.6408   27.4306 N   0  0  0  0  0  0  0  0  0  0  0  0
   38.9182   13.4291   27.5520 C   0  0  0  0  0  0  0  0  0  0  0  0
   41.3736   16.8736   26.9251 N   0  0  0  0  0  0  0  0  0  0  0  0
   41.9197   15.6406   27.4919 C   0  0  0  0  0  0  0  0  0  0  0  0
   41.0408   14.4752   27.5930 C   0  0  0  0  0  0  0  0  0  0  0  0
   42.2662   17.9435   26.5190 C   0  0  0  0  0  0  0  0  0  0  0  0
   41.5649   13.4133   27.8148 O   0  0  0  0  0  0  0  0  0  0  0  0
   40.0671   17.0531   26.7780 C   0  0  0  0  0  0  0  0  0  0  0  0
   39.5399   18.0760   26.3111 O   0  0  0  0  0  0  0  0  0  0  0  0
   39.2456   12.3413   26.4705 C   0  0  0  0  0  0  0  0  0  0  0  0
   39.2398   12.6389   25.1175 C   0  0  0  0  0  0  0  0  0  0  0  0
   39.5403   11.6255   24.2047 C   0  0  0  0  0  0  0  0  0  0  0  0
   39.8339   10.3612   24.6084 C   0  0  0  0  0  0  0  0  0  0  0  0
   39.8517   10.0106   25.9391 C   0  0  0  0  0  0  0  0  0  0  0  0
   39.5592   11.0054   26.8463 C   0  0  0  0  0  0  0  0  0  0  0  0
   39.5788   11.7478   22.8383 O   0  0  0  0  0  0  0  0  0  0  0  0
   40.2231   10.4901   22.4785 C   0  0  0  0  0  0  0  0  0  0  0  0
   40.0898    9.5515   23.5404 O   0  0  0  0  0  0  0  0  0  0  0  0
  1  6  2  0  0  0
  1  2  1  0  0  0
  2  3  1  0  0  0
  3  4  2  0  0  0
  4  5  1  0  0  0
  5  6  1  0  0  0
  6  7  1  0  0  0
  7  8  2  0  0  0
  7 10  1  0  0  0
  8  9  1  0  0  0
  8 13  1  0  0  0
  5  9  2  0  0  0
 10 11  1  0  0  0
 11 12  1  0  0  0
 12 16  1  0  0  0
 12 13  1  0  0  0
 13 21  1  0  0  0
 14 17  1  0  0  0
 14 19  1  0  0  0
 14 15  1  0  0  0
 15 16  1  0  0  0
 16 18  2  0  0  0
 21 22  2  0  0  0
 21 26  1  0  0  0
 22 23  1  0  0  0
 23 24  2  0  0  0
 24 29  1  0  0  0
 24 25  1  0  0  0
 25 26  2  0  0  0
 23 27  1  0  0  0
 27 28  1  0  0  0
 28 29  1  0  0  0
 11 19  1  0  0  0
 19 20  2  0  0  0
M  END
> <minimizedAffinity>
-4.86889

$$$$
