


 46 48  0  0  0  0  0  0  0  0999 V2000
  -15.5418  -10.2855   17.9275 C   0  0  0  0  0  0  0  0  0  0  0  0
  -17.0030  -10.3088   18.2657 O   0  0  0  0  0  0  0  0  0  0  0  0
  -14.9358  -11.4105   17.1420 N   0  0  0  0  0  0  0  0  0  0  0  0
  -13.4976  -11.5245   16.7312 C   0  0  0  0  0  0  0  0  0  0  0  0
  -13.3344  -12.8035   15.9647 C   0  0  0  0  0  0  0  0  0  0  0  0
  -14.6717  -13.4800   15.9017 C   0  0  0  0  0  0  0  0  0  0  0  0
  -15.6614  -12.6191   16.6293 C   0  0  0  0  0  0  0  0  0  0  0  0
  -13.4782  -14.1161   15.2530 C   0  0  0  0  0  0  0  0  0  0  0  0
  -14.1131  -15.3574   14.6998 C   0  0  0  0  0  0  0  0  0  0  0  0
  -12.0642  -14.3210   14.7963 C   0  0  0  0  0  0  0  0  0  0  0  0
  -17.1205  -12.9148   16.8121 C   0  0  0  0  0  0  0  0  0  0  0  0
  -17.8308  -12.4501   18.0489 O   0  0  0  0  0  0  0  0  0  0  0  0
  -17.8695  -13.6753   15.7582 N   0  0  0  0  0  0  0  0  0  0  0  0
  -17.4033  -13.9803   14.9465 H   0  0  0  0  0  0  0  0  0  0  0  0
  -19.3286  -13.9710   15.9411 C   0  0  0  0  0  0  0  0  0  0  0  0
  -20.2754  -13.8172   14.7879 C   0  0  0  0  0  0  0  0  0  0  0  0
  -20.2223  -15.2968   14.5470 O   0  0  0  0  0  0  0  0  0  0  0  0
  -20.3285  -12.3377   15.0289 S   0  0  0  0  0  0  0  0  0  0  0  0
  -19.6749  -15.8613   15.1150 H   0  0  0  0  0  0  0  0  0  0  0  0
  -21.0960  -11.5462   14.2326 H   0  0  0  0  0  0  0  0  0  0  0  0
  -21.2222  -13.6634   13.6347 C   0  0  0  0  0  0  0  0  0  0  0  0
  -22.1824  -14.7662   13.3003 N   0  0  0  0  0  0  0  0  0  0  0  0
  -21.2088  -12.4066   12.8160 O   0  0  0  0  0  0  0  0  0  0  0  0
  -22.8038  -14.6652   12.5434 H   0  0  0  0  0  0  0  0  0  0  0  0
  -22.1912  -15.5910   13.8377 H   0  0  0  0  0  0  0  0  0  0  0  0
  -22.8126  -15.4900   13.0808 H   0  0  0  0  0  0  0  0  0  0  0  0
  -19.8410  -14.4205   17.2773 C   0  0  0  0  0  0  0  0  0  0  0  0
  -19.0551  -15.4075   18.0886 C   0  0  0  0  0  0  0  0  0  0  0  0
  -18.1248  -15.3146   19.2616 C   0  0  0  0  0  0  0  0  0  0  0  0
  -17.9437  -16.8034   19.2359 C   0  0  0  0  0  0  0  0  0  0  0  0
  -18.8740  -16.8963   18.0629 C   0  0  0  0  0  0  0  0  0  0  0  0
  -14.6868   -9.1372   18.3747 C   0  0  0  0  0  0  0  0  0  0  0  0
  -11.0008   -7.8445   17.6722 N   0  0  0  0  0  0  0  0  0  0  0  0
  -12.2852   -8.1459   18.3861 C   0  0  0  0  0  0  0  0  0  0  0  0
  -12.4524   -7.7573   19.8252 O   0  0  0  0  0  0  0  0  0  0  0  0
  -13.4023   -8.8358   17.6609 N   0  0  0  0  0  0  0  0  0  0  0  0
  -10.8910   -8.0996   16.7277 H   0  0  0  0  0  0  0  0  0  0  0  0
  -13.2926   -9.0909   16.7163 H   0  0  0  0  0  0  0  0  0  0  0  0
   -9.6978   -6.2298   17.2312 C   0  0  0  0  0  0  0  0  0  0  0  0
   -9.8837   -7.1546   18.3975 C   0  0  0  0  0  0  0  0  0  0  0  0
  -10.0696   -8.0794   19.5637 C   0  0  0  0  0  0  0  0  0  0  0  0
   -8.7666   -6.4647   19.1227 C   0  0  0  0  0  0  0  0  0  0  0  0
  -15.1160   -8.2901   19.5359 C   0  0  0  0  0  0  0  0  0  0  0  0
  -15.3348   -7.1309   18.6094 C   0  0  0  0  0  0  0  0  0  0  0  0
  -14.8973   -9.4493   20.4624 C   0  0  0  0  0  0  0  0  0  0  0  0
  -15.5453   -7.4431   20.6970 C   0  0  0  0  0  0  0  0  0  0  0  0
 39 40  1  0  0  0
 40 41  1  0  0  0
 40 42  1  0  0  0
 40 33  1  0  0  0
 33 34  1  0  0  0
 34 35  2  0  0  0
 34 36  1  0  0  0
 32 36  1  0  0  0
 32  1  1  0  0  0
  1  2  2  0  0  0
  1  3  1  0  0  0
  3  4  1  0  0  0
  5  4  1  0  0  0
  5  6  1  0  0  0
  6  7  1  0  0  0
  7 11  1  0  0  0
 11 12  2  0  0  0
 11 13  1  0  0  0
 13 15  1  0  0  0
 15 27  1  0  0  0
 27 28  1  0  0  0
 28 29  1  0  0  0
 29 30  1  0  0  0
 30 31  1  0  0  0
 15 16  1  0  0  0
 16 17  1  0  0  0
 16 18  1  0  0  0
 16 21  1  0  0  0
 21 22  1  0  0  0
 21 23  2  0  0  0
  6  8  1  0  0  0
  8  9  1  0  0  0
  8 10  1  0  0  0
 32 43  1  0  0  0
 43 44  1  0  0  0
 43 45  1  0  0  0
 43 46  1  0  0  0
  7  3  1  0  0  0
 31 28  1  0  0  0
  8  5  1  0  0  0
 33 37  1  0  0  0
 36 38  1  0  0  0
 13 14  1  0  0  0
 17 19  1  0  0  0
 18 20  1  0  0  0
 22 24  1  0  0  0
 22 25  1  0  0  0
 22 26  1  0  0  0
M  CHG 1  22   1
M  END
> <minimizedAffinity>
-166.54036

$$$$



 46 48  0  0  0  0  0  0  0  0999 V2000
  -15.0840  -10.2286   18.1197 C   0  0  0  0  0  0  0  0  0  0  0  0
  -16.4939  -10.2794   18.6291 O   0  0  0  0  0  0  0  0  0  0  0  0
  -14.6094  -11.2447   17.1236 N   0  0  0  0  0  0  0  0  0  0  0  0
  -13.2350  -11.3199   16.5275 C   0  0  0  0  0  0  0  0  0  0  0  0
  -13.2020  -12.4858   15.5842 C   0  0  0  0  0  0  0  0  0  0  0  0
  -14.5560  -13.1312   15.5974 C   0  0  0  0  0  0  0  0  0  0  0  0
  -15.4258  -12.3642   16.5488 C   0  0  0  0  0  0  0  0  0  0  0  0
  -13.4679  -13.6885   14.7282 C   0  0  0  0  0  0  0  0  0  0  0  0
  -14.2001  -14.8360   14.0980 C   0  0  0  0  0  0  0  0  0  0  0  0
  -12.1256  -13.8472   14.0778 C   0  0  0  0  0  0  0  0  0  0  0  0
  -16.8602  -12.6640   16.8691 C   0  0  0  0  0  0  0  0  0  0  0  0
  -17.4888  -12.0895   18.1039 O   0  0  0  0  0  0  0  0  0  0  0  0
  -17.6660  -13.5383   15.9546 N   0  0  0  0  0  0  0  0  0  0  0  0
  -17.2534  -13.9153   15.1441 H   0  0  0  0  0  0  0  0  0  0  0  0
  -19.1004  -13.8380   16.2750 C   0  0  0  0  0  0  0  0  0  0  0  0
  -20.1146  -13.9168   15.1726 C   0  0  0  0  0  0  0  0  0  0  0  0
  -19.8475  -15.3860   15.0319 O   0  0  0  0  0  0  0  0  0  0  0  0
  -20.3816  -12.4475   15.3135 S   0  0  0  0  0  0  0  0  0  0  0  0
  -19.1932  -15.8170   15.6037 H   0  0  0  0  0  0  0  0  0  0  0  0
  -21.2990  -11.8431   14.5117 H   0  0  0  0  0  0  0  0  0  0  0  0
  -21.1287  -13.9954   14.0703 C   0  0  0  0  0  0  0  0  0  0  0  0
  -21.0528  -13.0453   12.9121 N   0  0  0  0  0  0  0  0  0  0  0  0
  -22.2189  -15.0242   14.1262 O   0  0  0  0  0  0  0  0  0  0  0  0
  -21.7185  -13.0970   12.1886 H   0  0  0  0  0  0  0  0  0  0  0  0
  -20.3373  -12.3701   12.8754 H   0  0  0  0  0  0  0  0  0  0  0  0
  -21.0030  -12.4217   12.1519 H   0  0  0  0  0  0  0  0  0  0  0  0
  -19.5206  -14.0590   17.6979 C   0  0  0  0  0  0  0  0  0  0  0  0
  -18.4983  -14.4208   18.7343 C   0  0  0  0  0  0  0  0  0  0  0  0
  -18.2800  -14.0705   20.1763 C   0  0  0  0  0  0  0  0  0  0  0  0
  -17.0526  -14.9325   20.1999 C   0  0  0  0  0  0  0  0  0  0  0  0
  -17.2710  -15.2828   18.7578 C   0  0  0  0  0  0  0  0  0  0  0  0
  -14.1488   -9.1616   18.6063 C   0  0  0  0  0  0  0  0  0  0  0  0
  -10.2505   -8.6652   19.1606 N   0  0  0  0  0  0  0  0  0  0  0  0
  -11.7337   -8.4679   19.2667 C   0  0  0  0  0  0  0  0  0  0  0  0
  -12.2850   -7.3796   20.1395 O   0  0  0  0  0  0  0  0  0  0  0  0
  -12.6656   -9.3589   18.5001 N   0  0  0  0  0  0  0  0  0  0  0  0
   -9.8886   -9.3794   18.5878 H   0  0  0  0  0  0  0  0  0  0  0  0
  -12.3037  -10.0732   17.9273 H   0  0  0  0  0  0  0  0  0  0  0  0
  -10.3664   -6.7010   19.9534 C   0  0  0  0  0  0  0  0  0  0  0  0
   -9.3186   -7.7742   19.9272 C   0  0  0  0  0  0  0  0  0  0  0  0
   -8.2710   -8.8473   19.9010 C   0  0  0  0  0  0  0  0  0  0  0  0
   -8.3868   -6.8832   20.6938 C   0  0  0  0  0  0  0  0  0  0  0  0
  -14.6967   -7.8973   19.1990 C   0  0  0  0  0  0  0  0  0  0  0  0
  -14.6806   -8.5283   20.5598 C   0  0  0  0  0  0  0  0  0  0  0  0
  -14.7128   -7.2663   17.8383 C   0  0  0  0  0  0  0  0  0  0  0  0
  -15.2446   -6.6330   19.7918 C   0  0  0  0  0  0  0  0  0  0  0  0
 39 40  1  0  0  0
 40 41  1  0  0  0
 40 42  1  0  0  0
 40 33  1  0  0  0
 33 34  1  0  0  0
 34 35  2  0  0  0
 34 36  1  0  0  0
 32 36  1  0  0  0
 32  1  1  0  0  0
  1  2  2  0  0  0
  1  3  1  0  0  0
  3  4  1  0  0  0
  5  4  1  0  0  0
  5  6  1  0  0  0
  6  7  1  0  0  0
  7 11  1  0  0  0
 11 12  2  0  0  0
 11 13  1  0  0  0
 13 15  1  0  0  0
 15 27  1  0  0  0
 27 28  1  0  0  0
 28 29  1  0  0  0
 29 30  1  0  0  0
 30 31  1  0  0  0
 15 16  1  0  0  0
 16 17  1  0  0  0
 16 18  1  0  0  0
 16 21  1  0  0  0
 21 22  1  0  0  0
 21 23  2  0  0  0
  6  8  1  0  0  0
  8  9  1  0  0  0
  8 10  1  0  0  0
 32 43  1  0  0  0
 43 44  1  0  0  0
 43 45  1  0  0  0
 43 46  1  0  0  0
  7  3  1  0  0  0
 31 28  1  0  0  0
  8  5  1  0  0  0
 33 37  1  0  0  0
 36 38  1  0  0  0
 13 14  1  0  0  0
 17 19  1  0  0  0
 18 20  1  0  0  0
 22 24  1  0  0  0
 22 25  1  0  0  0
 22 26  1  0  0  0
M  CHG 1  22   1
M  END
> <minimizedAffinity>
-165.27285

$$$$
